
 OpenBabel04232614443D

 27 28  0  0  0  0  0  0  0  0999 V2000
    1.0740   -0.2318   -0.2234 C   0  0  0  0  0  0  0  0  0  0  0  0
    2.3759   -0.2786   -0.8563 N   0  0  0  0  0  0  0  0  0  0  0  0
    2.9817    0.8189   -1.4485 C   0  0  0  0  0  0  0  0  0  0  0  0
    4.2366    0.6276   -1.8700 C   0  0  0  0  0  0  0  0  0  0  0  0
    4.7664   -0.9976   -1.5294 S   0  0  0  0  0  0  0  0  0  0  0  0
    3.2032   -1.3950   -0.7236 C   0  0  0  0  0  0  0  0  0  0  0  0
    2.8909   -2.5103   -0.1400 N   0  0  0  0  0  0  0  0  0  0  0  0
    3.8895   -3.4131    0.1047 C   0  0  0  0  0  0  0  0  0  0  0  0
    4.9525   -3.0958    0.6249 O   0  0  0  0  0  0  0  0  0  0  0  0
    3.5181   -4.6959   -0.2129 N   0  0  0  0  0  0  0  0  0  0  0  0
    4.3260   -5.8546   -0.1537 C   0  0  0  0  0  0  0  0  0  0  0  0
    5.6169   -5.8634    0.3844 C   0  0  0  0  0  0  0  0  0  0  0  0
    6.4215   -7.0046    0.3225 C   0  0  0  0  0  0  0  0  0  0  0  0
    5.9356   -8.1648   -0.2680 C   0  0  0  0  0  0  0  0  0  0  0  0
    4.6323   -8.1845   -0.7605 C   0  0  0  0  0  0  0  0  0  0  0  0
    4.0279   -9.6262   -1.4832 Cl  0  0  0  0  0  0  0  0  0  0  0  0
    3.8222   -7.0453   -0.6960 C   0  0  0  0  0  0  0  0  0  0  0  0
    0.5811    0.7332   -0.3868 H   0  0  0  0  0  0  0  0  0  0  0  0
    1.1655   -0.3798    0.8578 H   0  0  0  0  0  0  0  0  0  0  0  0
    0.4247   -1.0114   -0.6331 H   0  0  0  0  0  0  0  0  0  0  0  0
    2.4306    1.7477   -1.5219 H   0  0  0  0  0  0  0  0  0  0  0  0
    4.8687    1.3675   -2.3439 H   0  0  0  0  0  0  0  0  0  0  0  0
    2.5822   -4.7726   -0.5870 H   0  0  0  0  0  0  0  0  0  0  0  0
    6.0447   -4.9876    0.8633 H   0  0  0  0  0  0  0  0  0  0  0  0
    7.4301   -6.9719    0.7257 H   0  0  0  0  0  0  0  0  0  0  0  0
    6.5735   -9.0407   -0.3399 H   0  0  0  0  0  0  0  0  0  0  0  0
    2.8144   -7.0902   -1.0984 H   0  0  0  0  0  0  0  0  0  0  0  0
  1  2  1  0  0  0  0
  1 18  1  0  0  0  0
  1 19  1  0  0  0  0
  1 20  1  0  0  0  0
  2  3  1  0  0  0  0
  2  6  1  0  0  0  0
  3  4  2  0  0  0  0
  3 21  1  0  0  0  0
  4  5  1  0  0  0  0
  4 22  1  0  0  0  0
  5  6  1  0  0  0  0
  6  7  2  0  0  0  0
  7  8  1  0  0  0  0
  8  9  2  0  0  0  0
  8 10  1  0  0  0  0
 10 11  1  0  0  0  0
 10 23  1  0  0  0  0
 11 12  1  0  0  0  0
 11 17  2  0  0  0  0
 12 13  2  0  0  0  0
 12 24  1  0  0  0  0
 13 14  1  0  0  0  0
 13 25  1  0  0  0  0
 14 15  2  0  0  0  0
 14 26  1  0  0  0  0
 15 16  1  0  0  0  0
 15 17  1  0  0  0  0
 17 27  1  0  0  0  0
M  END
>  <Energy>
-52.8151

$$$$

 OpenBabel04232614443D

 39 42  0  0  0  0  0  0  0  0999 V2000
    2.7729    0.3502   -1.0846 O   0  0  0  0  0  0  0  0  0  0  0  0
    2.3756   -0.1717   -0.0430 C   0  0  0  0  0  0  0  0  0  0  0  0
    1.1120   -0.9386   -0.0369 C   0  0  0  0  0  0  0  0  0  0  0  0
    0.8472   -1.9461    0.8245 N   0  0  0  0  0  0  0  0  0  0  0  0
   -0.4522   -2.3535    0.5779 O   0  0  0  0  0  0  0  0  0  0  0  0
   -0.9316   -1.6424   -0.4577 C   0  0  0  0  0  0  0  0  0  0  0  0
    0.0098   -0.7595   -0.9146 C   0  0  0  0  0  0  0  0  0  0  0  0
   -0.2287    0.1286   -2.0782 C   0  0  0  0  0  0  0  0  0  0  0  0
   -1.7301    0.1463   -2.4554 C   0  0  0  0  0  0  0  0  0  0  0  0
   -2.3908   -1.2502   -2.3699 C   0  0  0  0  0  0  0  0  0  0  0  0
   -2.3030   -1.8516   -0.9528 C   0  0  0  0  0  0  0  0  0  0  0  0
    3.0689    0.0060    1.1662 N   0  0  0  0  0  0  0  0  0  0  0  0
    2.5910   -0.5134    2.4550 C   0  0  0  0  0  0  0  0  0  0  0  0
    3.2813    0.0554    3.6912 C   0  0  0  0  0  0  0  0  0  0  0  0
    4.7682    0.0597    3.4940 C   0  0  0  0  0  0  0  0  0  0  0  0
    5.6479   -0.2847    4.5212 C   0  0  0  0  0  0  0  0  0  0  0  0
    7.0216   -0.2303    4.3010 C   0  0  0  0  0  0  0  0  0  0  0  0
    7.5163    0.1828    3.0634 C   0  0  0  0  0  0  0  0  0  0  0  0
    6.6388    0.5314    2.0344 C   0  0  0  0  0  0  0  0  0  0  0  0
    5.2575    0.4556    2.2370 C   0  0  0  0  0  0  0  0  0  0  0  0
    4.2711    0.8401    1.1596 C   0  0  0  0  0  0  0  0  0  0  0  0
    0.3512   -0.2453   -2.9302 H   0  0  0  0  0  0  0  0  0  0  0  0
    0.1089    1.1497   -1.8704 H   0  0  0  0  0  0  0  0  0  0  0  0
   -1.8444    0.5502   -3.4672 H   0  0  0  0  0  0  0  0  0  0  0  0
   -2.2623    0.8263   -1.7778 H   0  0  0  0  0  0  0  0  0  0  0  0
   -1.8852   -1.9208   -3.0769 H   0  0  0  0  0  0  0  0  0  0  0  0
   -3.4403   -1.1899   -2.6771 H   0  0  0  0  0  0  0  0  0  0  0  0
   -2.5600   -2.9148   -0.9708 H   0  0  0  0  0  0  0  0  0  0  0  0
   -3.0124   -1.3424   -0.2898 H   0  0  0  0  0  0  0  0  0  0  0  0
    2.7529   -1.5985    2.4318 H   0  0  0  0  0  0  0  0  0  0  0  0
    1.5180   -0.3166    2.5470 H   0  0  0  0  0  0  0  0  0  0  0  0
    2.9975   -0.5421    4.5647 H   0  0  0  0  0  0  0  0  0  0  0  0
    2.9485    1.0847    3.8694 H   0  0  0  0  0  0  0  0  0  0  0  0
    5.2693   -0.6016    5.4897 H   0  0  0  0  0  0  0  0  0  0  0  0
    7.7085   -0.5067    5.0966 H   0  0  0  0  0  0  0  0  0  0  0  0
    8.5899    0.2340    2.9013 H   0  0  0  0  0  0  0  0  0  0  0  0
    7.0404    0.8564    1.0775 H   0  0  0  0  0  0  0  0  0  0  0  0
    4.7485    0.8087    0.1742 H   0  0  0  0  0  0  0  0  0  0  0  0
    3.9435    1.8728    1.3347 H   0  0  0  0  0  0  0  0  0  0  0  0
  1  2  2  0  0  0  0
  2  3  1  0  0  0  0
  2 12  1  0  0  0  0
  3  4  2  0  0  0  0
  3  7  1  0  0  0  0
  4  5  1  0  0  0  0
  5  6  1  0  0  0  0
  6  7  2  0  0  0  0
  6 11  1  0  0  0  0
  7  8  1  0  0  0  0
  8  9  1  0  0  0  0
  8 22  1  0  0  0  0
  8 23  1  0  0  0  0
  9 10  1  0  0  0  0
  9 24  1  0  0  0  0
  9 25  1  0  0  0  0
 10 11  1  0  0  0  0
 10 26  1  0  0  0  0
 10 27  1  0  0  0  0
 11 28  1  0  0  0  0
 11 29  1  0  0  0  0
 12 13  1  0  0  0  0
 12 21  1  0  0  0  0
 13 14  1  0  0  0  0
 13 30  1  0  0  0  0
 13 31  1  0  0  0  0
 14 15  1  0  0  0  0
 14 32  1  0  0  0  0
 14 33  1  0  0  0  0
 15 16  1  0  0  0  0
 15 20  2  0  0  0  0
 16 17  2  0  0  0  0
 16 34  1  0  0  0  0
 17 18  1  0  0  0  0
 17 35  1  0  0  0  0
 18 19  2  0  0  0  0
 18 36  1  0  0  0  0
 19 20  1  0  0  0  0
 19 37  1  0  0  0  0
 20 21  1  0  0  0  0
 21 38  1  0  0  0  0
 21 39  1  0  0  0  0
M  END
>  <Energy>
51.1623

$$$$

 OpenBabel04232614443D

 35 38  0  0  0  0  0  0  0  0999 V2000
   -3.4129    1.5344    0.5378 C   0  0  0  0  0  0  0  0  0  0  0  0
   -3.9259    0.2637    0.7315 C   0  0  0  0  0  0  0  0  0  0  0  0
   -3.1985   -0.8704    0.6211 N   0  0  0  0  0  0  0  0  0  0  0  0
   -1.9001   -0.7572    0.2673 C   0  0  0  0  0  0  0  0  0  0  0  0
   -1.3183    0.4924    0.0135 C   0  0  0  0  0  0  0  0  0  0  0  0
   -2.0755    1.6552    0.1819 C   0  0  0  0  0  0  0  0  0  0  0  0
    0.0158    0.5611   -0.4512 N   0  0  0  0  0  0  0  0  0  0  0  0
    0.9040    1.5804   -0.1757 C   0  0  0  0  0  0  0  0  0  0  0  0
    2.1419    1.2339   -0.6596 C   0  0  0  0  0  0  0  0  0  0  0  0
    1.9945    0.0031   -1.3314 C   0  0  0  0  0  0  0  0  0  0  0  0
    0.6619   -0.3824   -1.2502 C   0  0  0  0  0  0  0  0  0  0  0  0
   -0.0799   -1.5469   -1.9279 C   0  0  0  0  0  0  0  0  0  0  0  0
   -1.2148   -1.0235   -2.8604 C   0  0  0  0  0  0  0  0  0  0  0  0
   -2.0114   -2.1226   -3.5562 C   0  0  0  0  0  0  0  0  0  0  0  0
   -0.9778   -3.0340   -4.7320 S   0  0  0  0  0  0  0  0  0  0  0  0
    0.3377   -3.5274   -3.5920 C   0  0  0  0  0  0  0  0  0  0  0  0
    0.9236   -2.3416   -2.8284 C   0  0  0  0  0  0  0  0  0  0  0  0
   -0.6195   -2.4949   -0.9229 N   0  0  0  0  0  0  0  0  0  0  0  0
   -1.0996   -1.9300    0.2971 N   0  0  0  0  0  0  0  0  0  0  0  0
   -4.0465    2.4085    0.6420 H   0  0  0  0  0  0  0  0  0  0  0  0
   -4.9696    0.1156    0.9950 H   0  0  0  0  0  0  0  0  0  0  0  0
   -1.6671    2.6413   -0.0173 H   0  0  0  0  0  0  0  0  0  0  0  0
    0.6092    2.4403    0.4119 H   0  0  0  0  0  0  0  0  0  0  0  0
    3.0506    1.8118   -0.5503 H   0  0  0  0  0  0  0  0  0  0  0  0
    2.7805   -0.5225   -1.8588 H   0  0  0  0  0  0  0  0  0  0  0  0
   -0.7874   -0.3436   -3.6130 H   0  0  0  0  0  0  0  0  0  0  0  0
   -1.9416   -0.4104   -2.3219 H   0  0  0  0  0  0  0  0  0  0  0  0
   -2.8396   -1.6758   -4.1164 H   0  0  0  0  0  0  0  0  0  0  0  0
   -2.4562   -2.8219   -2.8401 H   0  0  0  0  0  0  0  0  0  0  0  0
    1.1281   -3.9970   -4.1867 H   0  0  0  0  0  0  0  0  0  0  0  0
   -0.0449   -4.2945   -2.9110 H   0  0  0  0  0  0  0  0  0  0  0  0
    1.3838   -1.6588   -3.5556 H   0  0  0  0  0  0  0  0  0  0  0  0
    1.7531   -2.7228   -2.2134 H   0  0  0  0  0  0  0  0  0  0  0  0
    0.0827   -3.2019   -0.6978 H   0  0  0  0  0  0  0  0  0  0  0  0
   -0.3493   -1.7443    0.9683 H   0  0  0  0  0  0  0  0  0  0  0  0
  1  2  1  0  0  0  0
  1  6  2  0  0  0  0
  1 20  1  0  0  0  0
  2  3  2  0  0  0  0
  2 21  1  0  0  0  0
  3  4  1  0  0  0  0
  4  5  2  0  0  0  0
  4 19  1  0  0  0  0
  5  6  1  0  0  0  0
  5  7  1  0  0  0  0
  6 22  1  0  0  0  0
  7  8  1  0  0  0  0
  7 11  1  0  0  0  0
  8  9  2  0  0  0  0
  8 23  1  0  0  0  0
  9 10  1  0  0  0  0
  9 24  1  0  0  0  0
 10 11  2  0  0  0  0
 10 25  1  0  0  0  0
 11 12  1  0  0  0  0
 12 13  1  0  0  0  0
 12 17  1  0  0  0  0
 12 18  1  0  0  0  0
 13 14  1  0  0  0  0
 13 26  1  0  0  0  0
 13 27  1  0  0  0  0
 14 15  1  0  0  0  0
 14 28  1  0  0  0  0
 14 29  1  0  0  0  0
 15 16  1  0  0  0  0
 16 17  1  0  0  0  0
 16 30  1  0  0  0  0
 16 31  1  0  0  0  0
 17 32  1  0  0  0  0
 17 33  1  0  0  0  0
 18 19  1  0  0  0  0
 18 34  1  0  0  0  0
 19 35  1  0  0  0  0
M  END
>  <Energy>
78.0192

$$$$

 OpenBabel04232614443D

 30 32  0  0  0  0  0  0  0  0999 V2000
    1.0540    0.0681    0.2875 O   0  0  0  0  0  0  0  0  0  0  0  0
    2.2680    0.0577    0.2121 C   0  0  0  0  0  0  0  0  0  0  0  0
    3.0730   -1.0277    0.2505 O   0  0  0  0  0  0  0  0  0  0  0  0
    4.3588   -0.6434    0.0720 C   0  0  0  0  0  0  0  0  0  0  0  0
    5.3787   -1.4220   -0.0540 N   0  0  0  0  0  0  0  0  0  0  0  0
    5.2196   -2.8224   -0.0607 C   0  0  0  0  0  0  0  0  0  0  0  0
    6.1625   -3.5815    0.6425 C   0  0  0  0  0  0  0  0  0  0  0  0
    6.1048   -4.9797    0.6416 C   0  0  0  0  0  0  0  0  0  0  0  0
    5.0947   -5.6317   -0.0639 C   0  0  0  0  0  0  0  0  0  0  0  0
    5.0200   -7.3499   -0.0589 Cl  0  0  0  0  0  0  0  0  0  0  0  0
    4.1592   -4.9019   -0.7870 C   0  0  0  0  0  0  0  0  0  0  0  0
    4.2433   -3.5115   -0.7998 C   0  0  0  0  0  0  0  0  0  0  0  0
    3.3709   -2.8395   -1.5676 F   0  0  0  0  0  0  0  0  0  0  0  0
    4.3790    0.8097    0.0428 C   0  0  0  0  0  0  0  0  0  0  0  0
    3.1228    1.2274    0.0832 C   0  0  0  0  0  0  0  0  0  0  0  0
    2.6649    2.6229    0.0180 C   0  0  0  0  0  0  0  0  0  0  0  0
    3.8013    3.6531   -0.0427 C   0  0  0  0  0  0  0  0  0  0  0  0
    5.2651    3.1727   -0.0184 C   0  0  0  0  0  0  0  0  0  0  0  0
    5.5718    1.6686   -0.0527 C   0  0  0  0  0  0  0  0  0  0  0  0
    6.9598   -3.0771    1.1837 H   0  0  0  0  0  0  0  0  0  0  0  0
    6.8542   -5.5498    1.1849 H   0  0  0  0  0  0  0  0  0  0  0  0
    3.3746   -5.3928   -1.3532 H   0  0  0  0  0  0  0  0  0  0  0  0
    2.0300    2.8410    0.8853 H   0  0  0  0  0  0  0  0  0  0  0  0
    2.0285    2.7489   -0.8671 H   0  0  0  0  0  0  0  0  0  0  0  0
    3.6639    4.3569    0.7903 H   0  0  0  0  0  0  0  0  0  0  0  0
    3.6573    4.2693   -0.9405 H   0  0  0  0  0  0  0  0  0  0  0  0
    5.7435    3.5964    0.8754 H   0  0  0  0  0  0  0  0  0  0  0  0
    5.7941    3.6468   -0.8564 H   0  0  0  0  0  0  0  0  0  0  0  0
    6.2502    1.4322    0.7768 H   0  0  0  0  0  0  0  0  0  0  0  0
    6.1171    1.4317   -0.9730 H   0  0  0  0  0  0  0  0  0  0  0  0
  1  2  2  0  0  0  0
  2  3  1  0  0  0  0
  2 15  1  0  0  0  0
  3  4  1  0  0  0  0
  4  5  2  0  0  0  0
  4 14  1  0  0  0  0
  5  6  1  0  0  0  0
  6  7  1  0  0  0  0
  6 12  2  0  0  0  0
  7  8  2  0  0  0  0
  7 20  1  0  0  0  0
  8  9  1  0  0  0  0
  8 21  1  0  0  0  0
  9 10  1  0  0  0  0
  9 11  2  0  0  0  0
 11 12  1  0  0  0  0
 11 22  1  0  0  0  0
 12 13  1  0  0  0  0
 14 15  2  0  0  0  0
 14 19  1  0  0  0  0
 15 16  1  0  0  0  0
 16 17  1  0  0  0  0
 16 23  1  0  0  0  0
 16 24  1  0  0  0  0
 17 18  1  0  0  0  0
 17 25  1  0  0  0  0
 17 26  1  0  0  0  0
 18 19  1  0  0  0  0
 18 27  1  0  0  0  0
 18 28  1  0  0  0  0
 19 29  1  0  0  0  0
 19 30  1  0  0  0  0
M  END
>  <Energy>
-5.97096

$$$$

 OpenBabel04232614443D

 31 34  0  0  0  0  0  0  0  0999 V2000
    1.0921    0.1147   -0.0785 Cl  0  0  0  0  0  0  0  0  0  0  0  0
    2.8131    0.1135   -0.0786 C   0  0  0  0  0  0  0  0  0  0  0  0
    3.5021   -1.0989   -0.0704 C   0  0  0  0  0  0  0  0  0  0  0  0
    4.8990   -1.1024   -0.0701 C   0  0  0  0  0  0  0  0  0  0  0  0
    5.6050    0.1001   -0.0819 C   0  0  0  0  0  0  0  0  0  0  0  0
    4.9033    1.3046   -0.0908 C   0  0  0  0  0  0  0  0  0  0  0  0
    3.5044    1.3242   -0.0879 C   0  0  0  0  0  0  0  0  0  0  0  0
    5.6654    2.4731   -0.1019 N   0  0  0  0  0  0  0  0  0  0  0  0
    5.2732    3.7858   -0.0940 C   0  0  0  0  0  0  0  0  0  0  0  0
    6.4427    4.5169   -0.1078 C   0  0  0  0  0  0  0  0  0  0  0  0
    6.5456    5.9652   -0.0713 C   0  0  0  0  0  0  0  0  0  0  0  0
    7.6985    6.5614    0.4573 C   0  0  0  0  0  0  0  0  0  0  0  0
    7.8097    7.9517    0.5354 C   0  0  0  0  0  0  0  0  0  0  0  0
    6.7733    8.7606    0.0740 C   0  0  0  0  0  0  0  0  0  0  0  0
    5.6294    8.1809   -0.4716 C   0  0  0  0  0  0  0  0  0  0  0  0
    5.5155    6.7899   -0.5447 C   0  0  0  0  0  0  0  0  0  0  0  0
    7.5320    3.6769   -0.1118 N   0  0  0  0  0  0  0  0  0  0  0  0
    7.0335    2.4558   -0.1150 C   0  0  0  0  0  0  0  0  0  0  0  0
    7.7834    1.1778   -0.1285 C   0  0  0  0  0  0  0  0  0  0  0  0
    6.9631   -0.0054   -0.0729 O   0  0  0  0  0  0  0  0  0  0  0  0
    2.9608   -2.0414   -0.0628 H   0  0  0  0  0  0  0  0  0  0  0  0
    5.4370   -2.0476   -0.0609 H   0  0  0  0  0  0  0  0  0  0  0  0
    2.9434    2.2531   -0.0920 H   0  0  0  0  0  0  0  0  0  0  0  0
    4.2388    4.0906   -0.0568 H   0  0  0  0  0  0  0  0  0  0  0  0
    8.5141    5.9394    0.8216 H   0  0  0  0  0  0  0  0  0  0  0  0
    8.7050    8.3997    0.9583 H   0  0  0  0  0  0  0  0  0  0  0  0
    6.8588    9.8422    0.1364 H   0  0  0  0  0  0  0  0  0  0  0  0
    4.8248    8.8112   -0.8415 H   0  0  0  0  0  0  0  0  0  0  0  0
    4.6187    6.3633   -0.9856 H   0  0  0  0  0  0  0  0  0  0  0  0
    8.4619    1.1416    0.7304 H   0  0  0  0  0  0  0  0  0  0  0  0
    8.3911    1.1125   -1.0372 H   0  0  0  0  0  0  0  0  0  0  0  0
  1  2  1  0  0  0  0
  2  3  1  0  0  0  0
  2  7  2  0  0  0  0
  3  4  2  0  0  0  0
  3 21  1  0  0  0  0
  4  5  1  0  0  0  0
  4 22  1  0  0  0  0
  5  6  2  0  0  0  0
  5 20  1  0  0  0  0
  6  7  1  0  0  0  0
  6  8  1  0  0  0  0
  7 23  1  0  0  0  0
  8  9  1  0  0  0  0
  8 18  1  0  0  0  0
  9 10  2  0  0  0  0
  9 24  1  0  0  0  0
 10 11  1  0  0  0  0
 10 17  1  0  0  0  0
 11 12  1  0  0  0  0
 11 16  2  0  0  0  0
 12 13  2  0  0  0  0
 12 25  1  0  0  0  0
 13 14  1  0  0  0  0
 13 26  1  0  0  0  0
 14 15  2  0  0  0  0
 14 27  1  0  0  0  0
 15 16  1  0  0  0  0
 15 28  1  0  0  0  0
 16 29  1  0  0  0  0
 17 18  2  0  0  0  0
 18 19  1  0  0  0  0
 19 20  1  0  0  0  0
 19 30  1  0  0  0  0
 19 31  1  0  0  0  0
M  END
>  <Energy>
54.8286

$$$$

 OpenBabel04232614443D

 26 27  0  0  0  0  0  0  0  0999 V2000
    0.9933    0.2403    0.2960 C   0  0  0  0  0  0  0  0  0  0  0  0
    2.4285    0.0251   -0.0025 C   0  0  0  0  0  0  0  0  0  0  0  0
    3.1264   -1.0987   -0.1821 C   0  0  0  0  0  0  0  0  0  0  0  0
    2.7182   -2.5220   -0.1208 C   0  0  0  0  0  0  0  0  0  0  0  0
    4.5069   -0.7164   -0.5329 C   0  0  0  0  0  0  0  0  0  0  0  0
    5.3821   -1.5472   -0.7122 O   0  0  0  0  0  0  0  0  0  0  0  0
    4.5643    0.6510   -0.5638 N   0  0  0  0  0  0  0  0  0  0  0  0
    5.7007    1.4188   -0.9496 C   0  0  0  0  0  0  0  0  0  0  0  0
    6.7164    0.8559   -1.7402 C   0  0  0  0  0  0  0  0  0  0  0  0
    7.7970    1.6265   -2.1791 C   0  0  0  0  0  0  0  0  0  0  0  0
    8.9884    0.9178   -3.2003 Cl  0  0  0  0  0  0  0  0  0  0  0  0
    7.9094    2.9629   -1.8207 C   0  0  0  0  0  0  0  0  0  0  0  0
    6.9259    3.5256   -1.0176 C   0  0  0  0  0  0  0  0  0  0  0  0
    7.0612    5.1755   -0.5441 Cl  0  0  0  0  0  0  0  0  0  0  0  0
    5.8284    2.7703   -0.5913 C   0  0  0  0  0  0  0  0  0  0  0  0
    3.3461    1.1632   -0.2070 C   0  0  0  0  0  0  0  0  0  0  0  0
    2.9739    2.3194   -0.1038 O   0  0  0  0  0  0  0  0  0  0  0  0
    0.4332   -0.6987    0.3208 H   0  0  0  0  0  0  0  0  0  0  0  0
    0.5365    0.8735   -0.4718 H   0  0  0  0  0  0  0  0  0  0  0  0
    0.8708    0.7316    1.2660 H   0  0  0  0  0  0  0  0  0  0  0  0
    1.6374   -2.6352    0.0006 H   0  0  0  0  0  0  0  0  0  0  0  0
    3.2056   -3.0220    0.7223 H   0  0  0  0  0  0  0  0  0  0  0  0
    3.0025   -3.0433   -1.0407 H   0  0  0  0  0  0  0  0  0  0  0  0
    6.6659   -0.1787   -2.0708 H   0  0  0  0  0  0  0  0  0  0  0  0
    8.7499    3.5583   -2.1652 H   0  0  0  0  0  0  0  0  0  0  0  0
    5.0924    3.2570    0.0440 H   0  0  0  0  0  0  0  0  0  0  0  0
  1  2  1  0  0  0  0
  1 18  1  0  0  0  0
  1 19  1  0  0  0  0
  1 20  1  0  0  0  0
  2  3  2  0  0  0  0
  2 16  1  0  0  0  0
  3  4  1  0  0  0  0
  3  5  1  0  0  0  0
  4 21  1  0  0  0  0
  4 22  1  0  0  0  0
  4 23  1  0  0  0  0
  5  6  2  0  0  0  0
  5  7  1  0  0  0  0
  7  8  1  0  0  0  0
  7 16  1  0  0  0  0
  8  9  1  0  0  0  0
  8 15  2  0  0  0  0
  9 10  2  0  0  0  0
  9 24  1  0  0  0  0
 10 11  1  0  0  0  0
 10 12  1  0  0  0  0
 12 13  2  0  0  0  0
 12 25  1  0  0  0  0
 13 14  1  0  0  0  0
 13 15  1  0  0  0  0
 15 26  1  0  0  0  0
 16 17  2  0  0  0  0
M  END
>  <Energy>
-22.596

$$$$

 OpenBabel04232614443D

 29 31  0  0  0  0  0  0  0  0999 V2000
    0.9484   -0.3143    0.1818 C   0  0  0  0  0  0  0  0  0  0  0  0
    2.4262    0.0335    0.1101 C   0  0  0  0  0  0  0  0  0  0  0  0
    2.8792    0.7203    1.3459 C   0  0  0  0  0  0  0  0  0  0  0  0
    2.8958    2.0253    1.5527 N   0  0  0  0  0  0  0  0  0  0  0  0
    3.3489    2.2490    2.8316 N   0  0  0  0  0  0  0  0  0  0  0  0
    3.6084    1.0779    3.3557 C   0  0  0  0  0  0  0  0  0  0  0  0
    3.3513    0.0659    2.4655 N   0  0  0  0  0  0  0  0  0  0  0  0
    3.4500   -1.2934    2.6379 N   0  0  0  0  0  0  0  0  0  0  0  0
    4.1606   -1.7028    3.6557 C   0  0  0  0  0  0  0  0  0  0  0  0
    4.2146   -3.1775    3.9305 C   0  0  0  0  0  0  0  0  0  0  0  0
    5.3300   -3.7701    4.5390 C   0  0  0  0  0  0  0  0  0  0  0  0
    5.3324   -5.1396    4.8243 C   0  0  0  0  0  0  0  0  0  0  0  0
    4.2290   -5.9215    4.4903 C   0  0  0  0  0  0  0  0  0  0  0  0
    4.2339   -7.6025    4.8528 Cl  0  0  0  0  0  0  0  0  0  0  0  0
    3.1244   -5.3475    3.8643 C   0  0  0  0  0  0  0  0  0  0  0  0
    3.1176   -3.9774    3.5813 C   0  0  0  0  0  0  0  0  0  0  0  0
    5.0097   -0.8034    4.5522 C   0  0  0  0  0  0  0  0  0  0  0  0
    4.1595    0.7361    4.9468 S   0  0  0  0  0  0  0  0  0  0  0  0
    0.6236   -0.7899   -0.7487 H   0  0  0  0  0  0  0  0  0  0  0  0
    0.3385    0.5828    0.3361 H   0  0  0  0  0  0  0  0  0  0  0  0
    0.7437   -1.0041    1.0075 H   0  0  0  0  0  0  0  0  0  0  0  0
    2.5968    0.6957   -0.7476 H   0  0  0  0  0  0  0  0  0  0  0  0
    3.0160   -0.8717   -0.0710 H   0  0  0  0  0  0  0  0  0  0  0  0
    6.2160   -3.1954    4.7943 H   0  0  0  0  0  0  0  0  0  0  0  0
    6.1974   -5.5891    5.3067 H   0  0  0  0  0  0  0  0  0  0  0  0
    2.2648   -5.9581    3.5988 H   0  0  0  0  0  0  0  0  0  0  0  0
    2.2446   -3.5410    3.0996 H   0  0  0  0  0  0  0  0  0  0  0  0
    5.9425   -0.5790    4.0233 H   0  0  0  0  0  0  0  0  0  0  0  0
    5.2527   -1.2899    5.4990 H   0  0  0  0  0  0  0  0  0  0  0  0
  1  2  1  0  0  0  0
  1 19  1  0  0  0  0
  1 20  1  0  0  0  0
  1 21  1  0  0  0  0
  2  3  1  0  0  0  0
  2 22  1  0  0  0  0
  2 23  1  0  0  0  0
  3  4  2  0  0  0  0
  3  7  1  0  0  0  0
  4  5  1  0  0  0  0
  5  6  2  0  0  0  0
  6  7  1  0  0  0  0
  6 18  1  0  0  0  0
  7  8  1  0  0  0  0
  8  9  2  0  0  0  0
  9 10  1  0  0  0  0
  9 17  1  0  0  0  0
 10 11  1  0  0  0  0
 10 16  2  0  0  0  0
 11 12  2  0  0  0  0
 11 24  1  0  0  0  0
 12 13  1  0  0  0  0
 12 25  1  0  0  0  0
 13 14  1  0  0  0  0
 13 15  2  0  0  0  0
 15 16  1  0  0  0  0
 15 26  1  0  0  0  0
 16 27  1  0  0  0  0
 17 18  1  0  0  0  0
 17 28  1  0  0  0  0
 17 29  1  0  0  0  0
M  END
>  <Energy>
83.6076

$$$$

 OpenBabel04232614443D

 28 30  0  0  0  0  0  0  0  0999 V2000
    0.9146    0.2304   -0.0032 O   0  0  0  0  0  0  0  0  0  0  0  0
    2.1363    0.1464    0.0150 C   0  0  0  0  0  0  0  0  0  0  0  0
    2.8600   -1.1547    0.0369 C   0  0  0  0  0  0  0  0  0  0  0  0
    4.2085   -1.1856    0.0791 C   0  0  0  0  0  0  0  0  0  0  0  0
    4.9446   -2.5151    0.0967 C   0  0  0  0  0  0  0  0  0  0  0  0
    6.2914   -2.3315    0.0858 F   0  0  0  0  0  0  0  0  0  0  0  0
    4.6498   -3.2412    1.2031 F   0  0  0  0  0  0  0  0  0  0  0  0
    4.6384   -3.2764   -0.9823 F   0  0  0  0  0  0  0  0  0  0  0  0
    4.9496   -0.0009    0.0982 N   0  0  0  0  0  0  0  0  0  0  0  0
    4.3584    1.2184    0.0464 C   0  0  0  0  0  0  0  0  0  0  0  0
    4.8154    2.5193    0.0327 C   0  0  0  0  0  0  0  0  0  0  0  0
    6.2074    2.9351    0.0793 C   0  0  0  0  0  0  0  0  0  0  0  0
    7.2044    2.2251   -0.6061 C   0  0  0  0  0  0  0  0  0  0  0  0
    8.5460    2.6002   -0.5025 C   0  0  0  0  0  0  0  0  0  0  0  0
    8.9030    3.7064    0.2639 C   0  0  0  0  0  0  0  0  0  0  0  0
    7.9189    4.4441    0.9176 C   0  0  0  0  0  0  0  0  0  0  0  0
    6.5774    4.0615    0.8264 C   0  0  0  0  0  0  0  0  0  0  0  0
    3.6262    3.2900    0.0229 C   0  0  0  0  0  0  0  0  0  0  0  0
    2.5126    2.5514    0.0067 N   0  0  0  0  0  0  0  0  0  0  0  0
    2.9748    1.2743    0.0163 N   0  0  0  0  0  0  0  0  0  0  0  0
    2.2452   -2.0465    0.0221 H   0  0  0  0  0  0  0  0  0  0  0  0
    5.9628   -0.1084    0.1946 H   0  0  0  0  0  0  0  0  0  0  0  0
    6.9518    1.3792   -1.2398 H   0  0  0  0  0  0  0  0  0  0  0  0
    9.3115    2.0300   -1.0237 H   0  0  0  0  0  0  0  0  0  0  0  0
    9.9469    3.9973    0.3465 H   0  0  0  0  0  0  0  0  0  0  0  0
    8.1949    5.3160    1.5055 H   0  0  0  0  0  0  0  0  0  0  0  0
    5.8317    4.6465    1.3606 H   0  0  0  0  0  0  0  0  0  0  0  0
    3.5278    4.3687    0.0247 H   0  0  0  0  0  0  0  0  0  0  0  0
  1  2  2  0  0  0  0
  2  3  1  0  0  0  0
  2 20  1  0  0  0  0
  3  4  2  0  0  0  0
  3 21  1  0  0  0  0
  4  5  1  0  0  0  0
  4  9  1  0  0  0  0
  5  6  1  0  0  0  0
  5  7  1  0  0  0  0
  5  8  1  0  0  0  0
  9 10  1  0  0  0  0
  9 22  1  0  0  0  0
 10 11  2  0  0  0  0
 10 20  1  0  0  0  0
 11 12  1  0  0  0  0
 11 18  1  0  0  0  0
 12 13  1  0  0  0  0
 12 17  2  0  0  0  0
 13 14  2  0  0  0  0
 13 23  1  0  0  0  0
 14 15  1  0  0  0  0
 14 24  1  0  0  0  0
 15 16  2  0  0  0  0
 15 25  1  0  0  0  0
 16 17  1  0  0  0  0
 16 26  1  0  0  0  0
 17 27  1  0  0  0  0
 18 19  2  0  0  0  0
 18 28  1  0  0  0  0
 19 20  1  0  0  0  0
M  END
>  <Energy>
152.316

$$$$

 OpenBabel04232614443D

 19 20  0  0  0  0  0  0  0  0999 V2000
    1.1069   -0.2393    0.2244 Cl  0  0  0  0  0  0  0  0  0  0  0  0
    2.8230   -0.0855    0.1422 C   0  0  0  0  0  0  0  0  0  0  0  0
    3.4352   -1.2829    0.1073 N   0  0  0  0  0  0  0  0  0  0  0  0
    4.7778   -1.2723    0.0335 C   0  0  0  0  0  0  0  0  0  0  0  0
    5.5455   -2.6040   -0.0489 C   0  0  0  0  0  0  0  0  0  0  0  0
    4.4643   -4.0419   -0.0627 Cl  0  0  0  0  0  0  0  0  0  0  0  0
    6.5240   -2.6521   -1.5602 Cl  0  0  0  0  0  0  0  0  0  0  0  0
    6.6502   -2.7664    1.3609 Cl  0  0  0  0  0  0  0  0  0  0  0  0
    5.4955   -0.1217    0.0124 N   0  0  0  0  0  0  0  0  0  0  0  0
    4.8528    1.0542    0.0437 C   0  0  0  0  0  0  0  0  0  0  0  0
    5.5938    2.2292    0.0022 C   0  0  0  0  0  0  0  0  0  0  0  0
    4.9863    3.4885    0.0130 C   0  0  0  0  0  0  0  0  0  0  0  0
    3.6027    3.5873    0.0726 C   0  0  0  0  0  0  0  0  0  0  0  0
    2.8386    2.4253    0.1234 C   0  0  0  0  0  0  0  0  0  0  0  0
    3.4632    1.1501    0.1065 C   0  0  0  0  0  0  0  0  0  0  0  0
    6.6795    2.1660   -0.0458 H   0  0  0  0  0  0  0  0  0  0  0  0
    5.5982    4.3866   -0.0282 H   0  0  0  0  0  0  0  0  0  0  0  0
    3.1212    4.5623    0.0779 H   0  0  0  0  0  0  0  0  0  0  0  0
    1.7548    2.5136    0.1696 H   0  0  0  0  0  0  0  0  0  0  0  0
  1  2  1  0  0  0  0
  2  3  1  0  0  0  0
  2 15  2  0  0  0  0
  3  4  2  0  0  0  0
  4  5  1  0  0  0  0
  4  9  1  0  0  0  0
  5  6  1  0  0  0  0
  5  7  1  0  0  0  0
  5  8  1  0  0  0  0
  9 10  2  0  0  0  0
 10 11  1  0  0  0  0
 10 15  1  0  0  0  0
 11 12  2  0  0  0  0
 11 16  1  0  0  0  0
 12 13  1  0  0  0  0
 12 17  1  0  0  0  0
 13 14  2  0  0  0  0
 13 18  1  0  0  0  0
 14 15  1  0  0  0  0
 14 19  1  0  0  0  0
M  END
>  <Energy>
75.1461

$$$$

 OpenBabel04232614443D

 34 37  0  0  0  0  0  0  0  0999 V2000
    0.9248   -0.3247    0.0118 C   0  0  0  0  0  0  0  0  0  0  0  0
    2.4202   -0.2783   -0.0230 C   0  0  0  0  0  0  0  0  0  0  0  0
    3.0772    1.0283    0.0069 C   0  0  0  0  0  0  0  0  0  0  0  0
    4.4177    1.1471   -0.0386 C   0  0  0  0  0  0  0  0  0  0  0  0
    5.2251   -0.0180   -0.1014 C   0  0  0  0  0  0  0  0  0  0  0  0
    6.5302   -0.1609   -0.1305 N   0  0  0  0  0  0  0  0  0  0  0  0
    6.7576   -1.5169   -0.1183 C   0  0  0  0  0  0  0  0  0  0  0  0
    8.1057   -2.0537   -0.0286 C   0  0  0  0  0  0  0  0  0  0  0  0
    8.3806   -3.3416    0.4533 C   0  0  0  0  0  0  0  0  0  0  0  0
    9.7038   -3.7414    0.6856 C   0  0  0  0  0  0  0  0  0  0  0  0
   10.7547   -2.8564    0.4483 C   0  0  0  0  0  0  0  0  0  0  0  0
   10.4860   -1.5850   -0.0603 C   0  0  0  0  0  0  0  0  0  0  0  0
    9.1766   -1.1981   -0.3247 C   0  0  0  0  0  0  0  0  0  0  0  0
   11.4600   -0.6447   -0.2780 O   0  0  0  0  0  0  0  0  0  0  0  0
   12.5804   -0.9067    0.5694 C   0  0  0  0  0  0  0  0  0  0  0  0
   13.0332   -2.3488    0.4036 C   0  0  0  0  0  0  0  0  0  0  0  0
   12.0133   -3.2814    0.7864 O   0  0  0  0  0  0  0  0  0  0  0  0
    5.5636   -2.2113   -0.1274 C   0  0  0  0  0  0  0  0  0  0  0  0
    4.5811   -1.2471   -0.1121 N   0  0  0  0  0  0  0  0  0  0  0  0
    3.1932   -1.3822   -0.0844 C   0  0  0  0  0  0  0  0  0  0  0  0
    0.4811    0.6557   -0.1936 H   0  0  0  0  0  0  0  0  0  0  0  0
    0.5765   -0.6495    0.9975 H   0  0  0  0  0  0  0  0  0  0  0  0
    0.5402   -1.0181   -0.7435 H   0  0  0  0  0  0  0  0  0  0  0  0
    2.4611    1.9209    0.0689 H   0  0  0  0  0  0  0  0  0  0  0  0
    4.9079    2.1137   -0.0151 H   0  0  0  0  0  0  0  0  0  0  0  0
    7.5774   -4.0299    0.7003 H   0  0  0  0  0  0  0  0  0  0  0  0
    9.9105   -4.7295    1.0880 H   0  0  0  0  0  0  0  0  0  0  0  0
    8.9870   -0.1941   -0.6991 H   0  0  0  0  0  0  0  0  0  0  0  0
   12.2971   -0.6851    1.6066 H   0  0  0  0  0  0  0  0  0  0  0  0
   13.3819   -0.2182    0.2845 H   0  0  0  0  0  0  0  0  0  0  0  0
   13.9050   -2.5363    1.0386 H   0  0  0  0  0  0  0  0  0  0  0  0
   13.3139   -2.5573   -0.6350 H   0  0  0  0  0  0  0  0  0  0  0  0
    5.3248   -3.2640   -0.1173 H   0  0  0  0  0  0  0  0  0  0  0  0
    2.7944   -2.3885   -0.1028 H   0  0  0  0  0  0  0  0  0  0  0  0
  1  2  1  0  0  0  0
  1 21  1  0  0  0  0
  1 22  1  0  0  0  0
  1 23  1  0  0  0  0
  2  3  1  0  0  0  0
  2 20  2  0  0  0  0
  3  4  2  0  0  0  0
  3 24  1  0  0  0  0
  4  5  1  0  0  0  0
  4 25  1  0  0  0  0
  5  6  2  0  0  0  0
  5 19  1  0  0  0  0
  6  7  1  0  0  0  0
  7  8  1  0  0  0  0
  7 18  2  0  0  0  0
  8  9  1  0  0  0  0
  8 13  2  0  0  0  0
  9 10  2  0  0  0  0
  9 26  1  0  0  0  0
 10 11  1  0  0  0  0
 10 27  1  0  0  0  0
 11 12  2  0  0  0  0
 11 17  1  0  0  0  0
 12 13  1  0  0  0  0
 12 14  1  0  0  0  0
 13 28  1  0  0  0  0
 14 15  1  0  0  0  0
 15 16  1  0  0  0  0
 15 29  1  0  0  0  0
 15 30  1  0  0  0  0
 16 17  1  0  0  0  0
 16 31  1  0  0  0  0
 16 32  1  0  0  0  0
 18 19  1  0  0  0  0
 18 33  1  0  0  0  0
 19 20  1  0  0  0  0
 20 34  1  0  0  0  0
M  END
>  <Energy>
65.3823

$$$$

 OpenBabel04232614443D

 29 30  0  0  0  0  0  0  0  0999 V2000
    2.4885   -0.1546    0.2934 C   0  0  0  0  0  0  0  0  0  0  0  0
    0.9914   -0.1225    0.1966 C   0  0  0  0  0  0  0  0  0  0  0  0
    0.2886   -1.1474   -0.4472 C   0  0  0  0  0  0  0  0  0  0  0  0
   -1.1068   -1.1144   -0.5221 C   0  0  0  0  0  0  0  0  0  0  0  0
   -1.8188   -0.0532    0.0516 C   0  0  0  0  0  0  0  0  0  0  0  0
   -3.2996   -0.0243   -0.0117 C   0  0  0  0  0  0  0  0  0  0  0  0
   -3.9973    0.6145   -1.0955 C   0  0  0  0  0  0  0  0  0  0  0  0
   -3.2377    1.2732   -2.2355 C   0  0  0  0  0  0  0  0  0  0  0  0
   -2.6075    1.8196   -3.1812 N   0  0  0  0  0  0  0  0  0  0  0  0
   -5.3537    0.6967   -1.1363 C   0  0  0  0  0  0  0  0  0  0  0  0
   -6.0918    1.3334   -2.1021 N   0  0  0  0  0  0  0  0  0  0  0  0
   -6.0679    0.1090   -0.1265 N   0  0  0  0  0  0  0  0  0  0  0  0
   -5.5262   -0.5540    0.9461 C   0  0  0  0  0  0  0  0  0  0  0  0
   -6.5740   -1.2278    2.0635 S   0  0  0  0  0  0  0  0  0  0  0  0
   -4.0402   -0.5801    0.9711 C   0  0  0  0  0  0  0  0  0  0  0  0
   -3.3067   -1.2407    2.1269 C   0  0  0  0  0  0  0  0  0  0  0  0
   -2.6982   -1.7888    3.0858 N   0  0  0  0  0  0  0  0  0  0  0  0
   -1.1171    0.9815    0.6832 C   0  0  0  0  0  0  0  0  0  0  0  0
    0.2775    0.9451    0.7555 C   0  0  0  0  0  0  0  0  0  0  0  0
    2.9013   -1.0647   -0.1546 H   0  0  0  0  0  0  0  0  0  0  0  0
    2.7997   -0.1295    1.3431 H   0  0  0  0  0  0  0  0  0  0  0  0
    2.9199    0.7043   -0.2305 H   0  0  0  0  0  0  0  0  0  0  0  0
    0.8244   -1.9840   -0.8914 H   0  0  0  0  0  0  0  0  0  0  0  0
   -1.6244   -1.9284   -1.0235 H   0  0  0  0  0  0  0  0  0  0  0  0
   -5.6196    1.5435   -2.9801 H   0  0  0  0  0  0  0  0  0  0  0  0
   -7.0241    0.9578   -2.2453 H   0  0  0  0  0  0  0  0  0  0  0  0
   -7.0785    0.1863   -0.1445 H   0  0  0  0  0  0  0  0  0  0  0  0
   -1.6433    1.8224    1.1304 H   0  0  0  0  0  0  0  0  0  0  0  0
    0.8083    1.7526    1.2566 H   0  0  0  0  0  0  0  0  0  0  0  0
  1  2  1  0  0  0  0
  1 20  1  0  0  0  0
  1 21  1  0  0  0  0
  1 22  1  0  0  0  0
  2  3  1  0  0  0  0
  2 19  2  0  0  0  0
  3  4  2  0  0  0  0
  3 23  1  0  0  0  0
  4  5  1  0  0  0  0
  4 24  1  0  0  0  0
  5  6  1  0  0  0  0
  5 18  2  0  0  0  0
  6  7  1  0  0  0  0
  6 15  2  0  0  0  0
  7  8  1  0  0  0  0
  7 10  2  0  0  0  0
  8  9  3  0  0  0  0
 10 11  1  0  0  0  0
 10 12  1  0  0  0  0
 11 25  1  0  0  0  0
 11 26  1  0  0  0  0
 12 13  1  0  0  0  0
 12 27  1  0  0  0  0
 13 14  2  0  0  0  0
 13 15  1  0  0  0  0
 15 16  1  0  0  0  0
 16 17  3  0  0  0  0
 18 19  1  0  0  0  0
 18 28  1  0  0  0  0
 19 29  1  0  0  0  0
M  END
>  <Energy>
317.132

$$$$

 OpenBabel04232614443D

 35 38  0  0  0  0  0  0  0  0999 V2000
    0.9484    0.2418    0.0936 C   0  0  0  0  0  0  0  0  0  0  0  0
    2.4808    0.0857    0.0473 C   0  0  0  0  0  0  0  0  0  0  0  0
    2.8909   -0.1296   -1.4237 C   0  0  0  0  0  0  0  0  0  0  0  0
    2.8603   -1.1364    0.9045 C   0  0  0  0  0  0  0  0  0  0  0  0
    4.3509   -1.3494    0.9820 C   0  0  0  0  0  0  0  0  0  0  0  0
    4.8436   -2.4713    1.0623 O   0  0  0  0  0  0  0  0  0  0  0  0
    5.1899   -0.1350    1.0367 C   0  0  0  0  0  0  0  0  0  0  0  0
    6.5102   -0.2126    1.2493 C   0  0  0  0  0  0  0  0  0  0  0  0
    7.2503    0.9541    1.3346 N   0  0  0  0  0  0  0  0  0  0  0  0
    6.6673    2.2139    1.2099 C   0  0  0  0  0  0  0  0  0  0  0  0
    5.3264    2.3434    0.9617 N   0  0  0  0  0  0  0  0  0  0  0  0
    4.6341    1.2447    0.8708 C   0  0  0  0  0  0  0  0  0  0  0  0
    3.1368    1.3641    0.6138 C   0  0  0  0  0  0  0  0  0  0  0  0
    7.5718    3.1561    1.3744 N   0  0  0  0  0  0  0  0  0  0  0  0
    8.7609    2.5050    1.5967 C   0  0  0  0  0  0  0  0  0  0  0  0
   10.0391    3.0330    1.8373 C   0  0  0  0  0  0  0  0  0  0  0  0
   11.1112    2.1508    2.0288 C   0  0  0  0  0  0  0  0  0  0  0  0
   10.9185    0.7690    1.9819 C   0  0  0  0  0  0  0  0  0  0  0  0
    9.6520    0.2236    1.7497 C   0  0  0  0  0  0  0  0  0  0  0  0
    8.5951    1.1251    1.5640 C   0  0  0  0  0  0  0  0  0  0  0  0
    0.4503   -0.6539   -0.2959 H   0  0  0  0  0  0  0  0  0  0  0  0
    0.6166    1.0956   -0.5072 H   0  0  0  0  0  0  0  0  0  0  0  0
    0.5948    0.3965    1.1191 H   0  0  0  0  0  0  0  0  0  0  0  0
    2.4737   -1.0652   -1.8137 H   0  0  0  0  0  0  0  0  0  0  0  0
    3.9768   -0.1758   -1.5521 H   0  0  0  0  0  0  0  0  0  0  0  0
    2.5235    0.6857   -2.0570 H   0  0  0  0  0  0  0  0  0  0  0  0
    2.4081   -2.0455    0.4887 H   0  0  0  0  0  0  0  0  0  0  0  0
    2.4936   -1.0228    1.9324 H   0  0  0  0  0  0  0  0  0  0  0  0
    7.0359   -1.1510    1.3784 H   0  0  0  0  0  0  0  0  0  0  0  0
    2.9692    2.2069   -0.0692 H   0  0  0  0  0  0  0  0  0  0  0  0
    2.6769    1.6349    1.5732 H   0  0  0  0  0  0  0  0  0  0  0  0
   10.1855    4.1073    1.8738 H   0  0  0  0  0  0  0  0  0  0  0  0
   12.1059    2.5502    2.2156 H   0  0  0  0  0  0  0  0  0  0  0  0
   11.7664    0.1036    2.1297 H   0  0  0  0  0  0  0  0  0  0  0  0
    9.5050   -0.8509    1.7168 H   0  0  0  0  0  0  0  0  0  0  0  0
  1  2  1  0  0  0  0
  1 21  1  0  0  0  0
  1 22  1  0  0  0  0
  1 23  1  0  0  0  0
  2  3  1  0  0  0  0
  2  4  1  0  0  0  0
  2 13  1  0  0  0  0
  3 24  1  0  0  0  0
  3 25  1  0  0  0  0
  3 26  1  0  0  0  0
  4  5  1  0  0  0  0
  4 27  1  0  0  0  0
  4 28  1  0  0  0  0
  5  6  2  0  0  0  0
  5  7  1  0  0  0  0
  7  8  2  0  0  0  0
  7 12  1  0  0  0  0
  8  9  1  0  0  0  0
  8 29  1  0  0  0  0
  9 10  1  0  0  0  0
  9 20  1  0  0  0  0
 10 11  1  0  0  0  0
 10 14  2  0  0  0  0
 11 12  2  0  0  0  0
 12 13  1  0  0  0  0
 13 30  1  0  0  0  0
 13 31  1  0  0  0  0
 14 15  1  0  0  0  0
 15 16  1  0  0  0  0
 15 20  2  0  0  0  0
 16 17  2  0  0  0  0
 16 32  1  0  0  0  0
 17 18  1  0  0  0  0
 17 33  1  0  0  0  0
 18 19  2  0  0  0  0
 18 34  1  0  0  0  0
 19 20  1  0  0  0  0
 19 35  1  0  0  0  0
M  END
>  <Energy>
48.9014

$$$$

 OpenBabel04232614443D

 36 39  0  0  0  0  0  0  0  0999 V2000
    1.1581   -0.2320    0.0409 C   0  0  0  0  0  0  0  0  0  0  0  0
    2.6263   -0.0056    0.0751 C   0  0  0  0  0  0  0  0  0  0  0  0
    3.4366   -1.0702    0.1070 N   0  0  0  0  0  0  0  0  0  0  0  0
    4.6904   -0.5629    0.0936 N   0  0  0  0  0  0  0  0  0  0  0  0
    5.8959   -1.2836    0.1153 C   0  0  0  0  0  0  0  0  0  0  0  0
    7.0576   -0.6039    0.1121 C   0  0  0  0  0  0  0  0  0  0  0  0
    6.9510    0.8760    0.0636 C   0  0  0  0  0  0  0  0  0  0  0  0
    5.8478    1.5608    0.0447 N   0  0  0  0  0  0  0  0  0  0  0  0
    4.6809    0.8380    0.0629 C   0  0  0  0  0  0  0  0  0  0  0  0
    3.3465    1.2220    0.0591 C   0  0  0  0  0  0  0  0  0  0  0  0
    2.8842    2.6102    0.0337 C   0  0  0  0  0  0  0  0  0  0  0  0
    3.6005    3.6035   -0.6508 C   0  0  0  0  0  0  0  0  0  0  0  0
    3.1586    4.9301   -0.6716 C   0  0  0  0  0  0  0  0  0  0  0  0
    1.9806    5.2827   -0.0211 C   0  0  0  0  0  0  0  0  0  0  0  0
    1.2530    4.3118    0.6607 C   0  0  0  0  0  0  0  0  0  0  0  0
    1.7067    2.9884    0.6958 C   0  0  0  0  0  0  0  0  0  0  0  0
    8.3566   -1.3070    0.1998 C   0  0  0  0  0  0  0  0  0  0  0  0
    9.4101   -0.6803    0.1234 O   0  0  0  0  0  0  0  0  0  0  0  0
    8.3285   -2.7918    0.4803 C   0  0  0  0  0  0  0  0  0  0  0  0
    7.1565   -3.4449   -0.2361 C   0  0  0  0  0  0  0  0  0  0  0  0
    5.8261   -2.7883    0.1397 C   0  0  0  0  0  0  0  0  0  0  0  0
    0.9187   -1.2920   -0.0979 H   0  0  0  0  0  0  0  0  0  0  0  0
    0.7016    0.3230   -0.7845 H   0  0  0  0  0  0  0  0  0  0  0  0
    0.6955    0.0842    0.9803 H   0  0  0  0  0  0  0  0  0  0  0  0
    7.9082    1.4240    0.0454 H   0  0  0  0  0  0  0  0  0  0  0  0
    4.5211    3.3606   -1.1762 H   0  0  0  0  0  0  0  0  0  0  0  0
    3.7404    5.6838   -1.1955 H   0  0  0  0  0  0  0  0  0  0  0  0
    1.6350    6.3127   -0.0399 H   0  0  0  0  0  0  0  0  0  0  0  0
    0.3351    4.5840    1.1754 H   0  0  0  0  0  0  0  0  0  0  0  0
    1.1295    2.2697    1.2682 H   0  0  0  0  0  0  0  0  0  0  0  0
    8.2601   -2.9360    1.5642 H   0  0  0  0  0  0  0  0  0  0  0  0
    9.2666   -3.2352    0.1301 H   0  0  0  0  0  0  0  0  0  0  0  0
    7.1219   -4.5146   -0.0011 H   0  0  0  0  0  0  0  0  0  0  0  0
    7.3047   -3.3612   -1.3209 H   0  0  0  0  0  0  0  0  0  0  0  0
    5.5271   -3.1132    1.1438 H   0  0  0  0  0  0  0  0  0  0  0  0
    5.0638   -3.1508   -0.5607 H   0  0  0  0  0  0  0  0  0  0  0  0
  1  2  1  0  0  0  0
  1 22  1  0  0  0  0
  1 23  1  0  0  0  0
  1 24  1  0  0  0  0
  2  3  2  0  0  0  0
  2 10  1  0  0  0  0
  3  4  1  0  0  0  0
  4  5  1  0  0  0  0
  4  9  1  0  0  0  0
  5  6  2  0  0  0  0
  5 21  1  0  0  0  0
  6  7  1  0  0  0  0
  6 17  1  0  0  0  0
  7  8  2  0  0  0  0
  7 25  1  0  0  0  0
  8  9  1  0  0  0  0
  9 10  2  0  0  0  0
 10 11  1  0  0  0  0
 11 12  1  0  0  0  0
 11 16  2  0  0  0  0
 12 13  2  0  0  0  0
 12 26  1  0  0  0  0
 13 14  1  0  0  0  0
 13 27  1  0  0  0  0
 14 15  2  0  0  0  0
 14 28  1  0  0  0  0
 15 16  1  0  0  0  0
 15 29  1  0  0  0  0
 16 30  1  0  0  0  0
 17 18  2  0  0  0  0
 17 19  1  0  0  0  0
 19 20  1  0  0  0  0
 19 31  1  0  0  0  0
 19 32  1  0  0  0  0
 20 21  1  0  0  0  0
 20 33  1  0  0  0  0
 20 34  1  0  0  0  0
 21 35  1  0  0  0  0
 21 36  1  0  0  0  0
M  END
>  <Energy>
60.3459

$$$$

 OpenBabel04232614443D

 36 38  0  0  0  0  0  0  0  0999 V2000
   -1.3509    1.9997   -3.7924 C   0  0  0  0  0  0  0  0  0  0  0  0
   -1.4932    1.3270   -2.4590 C   0  0  0  0  0  0  0  0  0  0  0  0
   -1.0426    1.9457   -1.2866 C   0  0  0  0  0  0  0  0  0  0  0  0
   -1.1859    1.3125   -0.0493 C   0  0  0  0  0  0  0  0  0  0  0  0
   -1.7772    0.0515    0.0292 C   0  0  0  0  0  0  0  0  0  0  0  0
   -2.2235   -0.5743   -1.1362 C   0  0  0  0  0  0  0  0  0  0  0  0
   -2.8714   -1.9005   -1.0949 C   0  0  0  0  0  0  0  0  0  0  0  0
   -3.0354   -2.5565    0.0112 N   0  0  0  0  0  0  0  0  0  0  0  0
   -3.7758   -3.7357   -0.0384 N   0  0  0  0  0  0  0  0  0  0  0  0
   -3.4968   -4.7098    0.9099 C   0  0  0  0  0  0  0  0  0  0  0  0
   -2.3399   -4.4983    1.8625 C   0  0  0  0  0  0  0  0  0  0  0  0
   -4.1540   -5.8249    1.0178 N   0  0  0  0  0  0  0  0  0  0  0  0
   -5.2429   -6.0430    0.1686 C   0  0  0  0  0  0  0  0  0  0  0  0
   -5.9652   -7.2327    0.2895 C   0  0  0  0  0  0  0  0  0  0  0  0
   -7.0935   -7.4672   -0.5022 C   0  0  0  0  0  0  0  0  0  0  0  0
   -7.5074   -6.5137   -1.4308 C   0  0  0  0  0  0  0  0  0  0  0  0
   -6.7870   -5.3275   -1.5691 C   0  0  0  0  0  0  0  0  0  0  0  0
   -5.6612   -5.1003   -0.7672 C   0  0  0  0  0  0  0  0  0  0  0  0
   -4.9065   -3.8383   -0.8656 C   0  0  0  0  0  0  0  0  0  0  0  0
   -5.3347   -2.9680   -1.6242 O   0  0  0  0  0  0  0  0  0  0  0  0
   -2.0882    0.0611   -2.3758 C   0  0  0  0  0  0  0  0  0  0  0  0
   -0.8743    2.9811   -3.6993 H   0  0  0  0  0  0  0  0  0  0  0  0
   -2.3351    2.1462   -4.2489 H   0  0  0  0  0  0  0  0  0  0  0  0
   -0.7329    1.3880   -4.4577 H   0  0  0  0  0  0  0  0  0  0  0  0
   -0.5799    2.9298   -1.3266 H   0  0  0  0  0  0  0  0  0  0  0  0
   -0.8398    1.8061    0.8556 H   0  0  0  0  0  0  0  0  0  0  0  0
   -1.8935   -0.4301    0.9968 H   0  0  0  0  0  0  0  0  0  0  0  0
   -3.1887   -2.2999   -2.0739 H   0  0  0  0  0  0  0  0  0  0  0  0
   -2.0142   -3.4604    1.9379 H   0  0  0  0  0  0  0  0  0  0  0  0
   -1.4962   -5.1139    1.5358 H   0  0  0  0  0  0  0  0  0  0  0  0
   -2.6388   -4.8300    2.8627 H   0  0  0  0  0  0  0  0  0  0  0  0
   -5.6516   -7.9757    1.0181 H   0  0  0  0  0  0  0  0  0  0  0  0
   -7.6545   -8.3911   -0.3856 H   0  0  0  0  0  0  0  0  0  0  0  0
   -8.3898   -6.6879   -2.0402 H   0  0  0  0  0  0  0  0  0  0  0  0
   -7.1128   -4.5782   -2.2885 H   0  0  0  0  0  0  0  0  0  0  0  0
   -2.4521   -0.4205   -3.2810 H   0  0  0  0  0  0  0  0  0  0  0  0
  1  2  1  0  0  0  0
  1 22  1  0  0  0  0
  1 23  1  0  0  0  0
  1 24  1  0  0  0  0
  2  3  1  0  0  0  0
  2 21  2  0  0  0  0
  3  4  2  0  0  0  0
  3 25  1  0  0  0  0
  4  5  1  0  0  0  0
  4 26  1  0  0  0  0
  5  6  2  0  0  0  0
  5 27  1  0  0  0  0
  6  7  1  0  0  0  0
  6 21  1  0  0  0  0
  7  8  2  0  0  0  0
  7 28  1  0  0  0  0
  8  9  1  0  0  0  0
  9 10  1  0  0  0  0
  9 19  1  0  0  0  0
 10 11  1  0  0  0  0
 10 12  2  0  0  0  0
 11 29  1  0  0  0  0
 11 30  1  0  0  0  0
 11 31  1  0  0  0  0
 12 13  1  0  0  0  0
 13 14  1  0  0  0  0
 13 18  2  0  0  0  0
 14 15  2  0  0  0  0
 14 32  1  0  0  0  0
 15 16  1  0  0  0  0
 15 33  1  0  0  0  0
 16 17  2  0  0  0  0
 16 34  1  0  0  0  0
 17 18  1  0  0  0  0
 17 35  1  0  0  0  0
 18 19  1  0  0  0  0
 19 20  2  0  0  0  0
 21 36  1  0  0  0  0
M  END
>  <Energy>
96.0665

$$$$

 OpenBabel04232614443D

 39 41  0  0  0  0  0  0  0  0999 V2000
    0.9509   -0.2523   -0.0047 C   0  0  0  0  0  0  0  0  0  0  0  0
    2.4788   -0.1427   -0.0450 C   0  0  0  0  0  0  0  0  0  0  0  0
    3.0632   -0.6366    1.2825 C   0  0  0  0  0  0  0  0  0  0  0  0
    2.9557    1.3070   -0.3570 C   0  0  0  0  0  0  0  0  0  0  0  0
    3.2198    1.4252   -1.8908 C   0  0  0  0  0  0  0  0  0  0  0  0
    4.4504    2.3111   -2.1314 C   0  0  0  0  0  0  0  0  0  0  0  0
    2.0113    1.9968   -2.6428 C   0  0  0  0  0  0  0  0  0  0  0  0
    3.4440   -0.0245   -2.2312 C   0  0  0  0  0  0  0  0  0  0  0  0
    3.0535   -0.8836   -1.2284 C   0  0  0  0  0  0  0  0  0  0  0  0
    3.1407   -2.2060   -1.3496 N   0  0  0  0  0  0  0  0  0  0  0  0
    3.6581   -2.7154   -2.5115 N   0  0  0  0  0  0  0  0  0  0  0  0
    4.0612   -1.9045   -3.5494 C   0  0  0  0  0  0  0  0  0  0  0  0
    4.5918   -2.5463   -4.7652 C   0  0  0  0  0  0  0  0  0  0  0  0
    4.1219   -3.8073   -5.1764 C   0  0  0  0  0  0  0  0  0  0  0  0
    4.5851   -4.4130   -6.3516 C   0  0  0  0  0  0  0  0  0  0  0  0
    5.5388   -3.7749   -7.1375 C   0  0  0  0  0  0  0  0  0  0  0  0
    6.0427   -2.5434   -6.7402 C   0  0  0  0  0  0  0  0  0  0  0  0
    5.5820   -1.9437   -5.5649 C   0  0  0  0  0  0  0  0  0  0  0  0
    3.9255   -0.5172   -3.4232 N   0  3  0  0  0  0  0  0  0  0  0  0
    4.2052    0.2997   -4.3646 O   0  5  0  0  0  0  0  0  0  0  0  0
    0.5345    0.3908    0.7790 H   0  0  0  0  0  0  0  0  0  0  0  0
    0.6344   -1.2806    0.2037 H   0  0  0  0  0  0  0  0  0  0  0  0
    0.4843    0.0341   -0.9511 H   0  0  0  0  0  0  0  0  0  0  0  0
    2.7268   -0.0083    2.1152 H   0  0  0  0  0  0  0  0  0  0  0  0
    4.1591   -0.6230    1.2725 H   0  0  0  0  0  0  0  0  0  0  0  0
    2.7545   -1.6667    1.4943 H   0  0  0  0  0  0  0  0  0  0  0  0
    3.8954    1.4941    0.1831 H   0  0  0  0  0  0  0  0  0  0  0  0
    2.2484    2.0648    0.0017 H   0  0  0  0  0  0  0  0  0  0  0  0
    4.3077    3.3034   -1.6891 H   0  0  0  0  0  0  0  0  0  0  0  0
    4.6466    2.4615   -3.1980 H   0  0  0  0  0  0  0  0  0  0  0  0
    5.3544    1.8725   -1.6938 H   0  0  0  0  0  0  0  0  0  0  0  0
    1.7831    3.0116   -2.3012 H   0  0  0  0  0  0  0  0  0  0  0  0
    1.1123    1.3892   -2.5118 H   0  0  0  0  0  0  0  0  0  0  0  0
    2.2027    2.0455   -3.7208 H   0  0  0  0  0  0  0  0  0  0  0  0
    3.3701   -4.3317   -4.5866 H   0  0  0  0  0  0  0  0  0  0  0  0
    4.1922   -5.3813   -6.6530 H   0  0  0  0  0  0  0  0  0  0  0  0
    5.8871   -4.2344   -8.0579 H   0  0  0  0  0  0  0  0  0  0  0  0
    6.7906   -2.0354   -7.3461 H   0  0  0  0  0  0  0  0  0  0  0  0
    6.0073   -0.9782   -5.2908 H   0  0  0  0  0  0  0  0  0  0  0  0
  1  2  1  0  0  0  0
  1 21  1  0  0  0  0
  1 22  1  0  0  0  0
  1 23  1  0  0  0  0
  2  3  1  0  0  0  0
  2  4  1  0  0  0  0
  2  9  1  0  0  0  0
  3 24  1  0  0  0  0
  3 25  1  0  0  0  0
  3 26  1  0  0  0  0
  4  5  1  0  0  0  0
  4 27  1  0  0  0  0
  4 28  1  0  0  0  0
  5  6  1  0  0  0  0
  5  7  1  0  0  0  0
  5  8  1  0  0  0  0
  6 29  1  0  0  0  0
  6 30  1  0  0  0  0
  6 31  1  0  0  0  0
  7 32  1  0  0  0  0
  7 33  1  0  0  0  0
  7 34  1  0  0  0  0
  8  9  1  0  0  0  0
  8 19  2  0  0  0  0
  9 10  2  0  0  0  0
 10 11  1  0  0  0  0
 11 12  2  0  0  0  0
 12 13  1  0  0  0  0
 12 19  1  0  0  0  0
 13 14  1  0  0  0  0
 13 18  2  0  0  0  0
 14 15  2  0  0  0  0
 14 35  1  0  0  0  0
 15 16  1  0  0  0  0
 15 36  1  0  0  0  0
 16 17  2  0  0  0  0
 16 37  1  0  0  0  0
 17 18  1  0  0  0  0
 17 38  1  0  0  0  0
 18 39  1  0  0  0  0
 19 20  1  0  0  0  0
M  CHG  2  19   1  20  -1
M  END
>  <Energy>
95.5475

$$$$

 OpenBabel04232614443D

 28 31  0  0  0  0  0  0  0  0999 V2000
    0.8864   -0.1176    0.0512 O   0  0  0  0  0  0  0  0  0  0  0  0
    2.1121   -0.1064    0.0509 C   0  0  0  0  0  0  0  0  0  0  0  0
    2.8755    1.1631    0.0522 C   0  0  0  0  0  0  0  0  0  0  0  0
    2.1885    2.3849    0.0521 C   0  0  0  0  0  0  0  0  0  0  0  0
    2.9036    3.5792    0.0516 C   0  0  0  0  0  0  0  0  0  0  0  0
    4.2978    3.5489    0.0513 C   0  0  0  0  0  0  0  0  0  0  0  0
    4.9797    2.3243    0.0516 C   0  0  0  0  0  0  0  0  0  0  0  0
    6.7094    2.3673    0.0509 Cl  0  0  0  0  0  0  0  0  0  0  0  0
    4.2812    1.1050    0.0523 C   0  0  0  0  0  0  0  0  0  0  0  0
    4.9807   -0.1283    0.0525 N   0  0  0  0  0  0  0  0  0  0  0  0
    4.2674   -1.2001    0.0505 C   0  0  0  0  0  0  0  0  0  0  0  0
    2.8885   -1.2332    0.0489 N   0  0  0  0  0  0  0  0  0  0  0  0
    2.3687   -2.5856    0.0446 C   0  0  0  0  0  0  0  0  0  0  0  0
    3.6166   -3.4088    0.0489 C   0  0  0  0  0  0  0  0  0  0  0  0
    3.7655   -4.7838    0.0502 C   0  0  0  0  0  0  0  0  0  0  0  0
    5.0650   -5.3038    0.0518 C   0  0  0  0  0  0  0  0  0  0  0  0
    6.1880   -4.4536    0.0521 C   0  0  0  0  0  0  0  0  0  0  0  0
    6.0319   -3.0663    0.0516 C   0  0  0  0  0  0  0  0  0  0  0  0
    4.7410   -2.5776    0.0504 C   0  0  0  0  0  0  0  0  0  0  0  0
    1.1004    2.4029    0.0520 H   0  0  0  0  0  0  0  0  0  0  0  0
    2.3771    4.5308    0.0510 H   0  0  0  0  0  0  0  0  0  0  0  0
    4.8536    4.4838    0.0506 H   0  0  0  0  0  0  0  0  0  0  0  0
    1.7708   -2.7402   -0.8586 H   0  0  0  0  0  0  0  0  0  0  0  0
    1.7600   -2.7436    0.9399 H   0  0  0  0  0  0  0  0  0  0  0  0
    2.9057   -5.4468    0.0498 H   0  0  0  0  0  0  0  0  0  0  0  0
    5.2126   -6.3824    0.0527 H   0  0  0  0  0  0  0  0  0  0  0  0
    7.1871   -4.8842    0.0527 H   0  0  0  0  0  0  0  0  0  0  0  0
    6.8855   -2.3966    0.0520 H   0  0  0  0  0  0  0  0  0  0  0  0
  1  2  2  0  0  0  0
  2  3  1  0  0  0  0
  2 12  1  0  0  0  0
  3  4  1  0  0  0  0
  3  9  2  0  0  0  0
  4  5  2  0  0  0  0
  4 20  1  0  0  0  0
  5  6  1  0  0  0  0
  5 21  1  0  0  0  0
  6  7  2  0  0  0  0
  6 22  1  0  0  0  0
  7  8  1  0  0  0  0
  7  9  1  0  0  0  0
  9 10  1  0  0  0  0
 10 11  2  0  0  0  0
 11 12  1  0  0  0  0
 11 19  1  0  0  0  0
 12 13  1  0  0  0  0
 13 14  1  0  0  0  0
 13 23  1  0  0  0  0
 13 24  1  0  0  0  0
 14 15  1  0  0  0  0
 14 19  2  0  0  0  0
 15 16  2  0  0  0  0
 15 25  1  0  0  0  0
 16 17  1  0  0  0  0
 16 26  1  0  0  0  0
 17 18  2  0  0  0  0
 17 27  1  0  0  0  0
 18 19  1  0  0  0  0
 18 28  1  0  0  0  0
M  END
>  <Energy>
28.5183

$$$$

 OpenBabel04232614443D

 33 34  0  0  0  0  0  0  0  0999 V2000
    1.0032   -0.0871   -0.0320 O   0  0  0  0  0  0  0  0  0  0  0  0
    2.2012    0.1030   -0.2282 C   0  0  0  0  0  0  0  0  0  0  0  0
    2.8837    1.2600    0.1039 N   0  0  0  0  0  0  0  0  0  0  0  0
    2.2958    2.3651    0.6784 C   0  0  0  0  0  0  0  0  0  0  0  0
    1.1211    2.3984    1.0374 O   0  0  0  0  0  0  0  0  0  0  0  0
    3.1259    3.4712    0.8523 N   0  0  0  0  0  0  0  0  0  0  0  0
    2.6053    4.5866    1.6504 C   0  0  0  0  0  0  0  0  0  0  0  0
    2.6948    5.9056    0.8910 C   0  0  0  0  0  0  0  0  0  0  0  0
    4.1228    6.1605    0.4203 C   0  0  0  0  0  0  0  0  0  0  0  0
    4.6306    4.9814   -0.4047 C   0  0  0  0  0  0  0  0  0  0  0  0
    4.4899    3.6581    0.3487 C   0  0  0  0  0  0  0  0  0  0  0  0
    2.9717   -1.0046   -0.8847 C   0  0  0  0  0  0  0  0  0  0  0  0
    2.2474   -2.1591   -1.2391 C   0  0  0  0  0  0  0  0  0  0  0  0
    2.8657   -3.2367   -1.8779 C   0  0  0  0  0  0  0  0  0  0  0  0
    4.2228   -3.1720   -2.1684 C   0  0  0  0  0  0  0  0  0  0  0  0
    4.9927   -4.4933   -2.9547 Cl  0  0  0  0  0  0  0  0  0  0  0  0
    4.9606   -2.0386   -1.8278 C   0  0  0  0  0  0  0  0  0  0  0  0
    4.3395   -0.9536   -1.1901 C   0  0  0  0  0  0  0  0  0  0  0  0
    3.8810    1.2497    0.0767 H   0  0  0  0  0  0  0  0  0  0  0  0
    3.2055    4.6341    2.5672 H   0  0  0  0  0  0  0  0  0  0  0  0
    1.5687    4.4204    1.9599 H   0  0  0  0  0  0  0  0  0  0  0  0
    2.3593    6.7286    1.5313 H   0  0  0  0  0  0  0  0  0  0  0  0
    2.0254    5.8748    0.0221 H   0  0  0  0  0  0  0  0  0  0  0  0
    4.7753    6.3114    1.2889 H   0  0  0  0  0  0  0  0  0  0  0  0
    4.1605    7.0784   -0.1765 H   0  0  0  0  0  0  0  0  0  0  0  0
    5.6787    5.1431   -0.6793 H   0  0  0  0  0  0  0  0  0  0  0  0
    4.0564    4.9263   -1.3382 H   0  0  0  0  0  0  0  0  0  0  0  0
    5.1609    3.6383    1.2154 H   0  0  0  0  0  0  0  0  0  0  0  0
    4.7913    2.8528   -0.3230 H   0  0  0  0  0  0  0  0  0  0  0  0
    1.1805   -2.2240   -1.0230 H   0  0  0  0  0  0  0  0  0  0  0  0
    2.2791   -4.1117   -2.1437 H   0  0  0  0  0  0  0  0  0  0  0  0
    6.0218   -1.9926   -2.0621 H   0  0  0  0  0  0  0  0  0  0  0  0
    4.9571   -0.0939   -0.9592 H   0  0  0  0  0  0  0  0  0  0  0  0
  1  2  2  0  0  0  0
  2  3  1  0  0  0  0
  2 12  1  0  0  0  0
  3  4  1  0  0  0  0
  3 19  1  0  0  0  0
  4  5  2  0  0  0  0
  4  6  1  0  0  0  0
  6  7  1  0  0  0  0
  6 11  1  0  0  0  0
  7  8  1  0  0  0  0
  7 20  1  0  0  0  0
  7 21  1  0  0  0  0
  8  9  1  0  0  0  0
  8 22  1  0  0  0  0
  8 23  1  0  0  0  0
  9 10  1  0  0  0  0
  9 24  1  0  0  0  0
  9 25  1  0  0  0  0
 10 11  1  0  0  0  0
 10 26  1  0  0  0  0
 10 27  1  0  0  0  0
 11 28  1  0  0  0  0
 11 29  1  0  0  0  0
 12 13  1  0  0  0  0
 12 18  2  0  0  0  0
 13 14  2  0  0  0  0
 13 30  1  0  0  0  0
 14 15  1  0  0  0  0
 14 31  1  0  0  0  0
 15 16  1  0  0  0  0
 15 17  2  0  0  0  0
 17 18  1  0  0  0  0
 17 32  1  0  0  0  0
 18 33  1  0  0  0  0
M  END
>  <Energy>
-41.542

$$$$

 OpenBabel04232614443D

 27 29  0  0  0  0  0  0  0  0999 V2000
    1.0058    0.0026   -0.0068 C   0  0  0  0  0  0  0  0  0  0  0  0
    2.4855   -0.1122   -0.0157 C   0  0  0  0  0  0  0  0  0  0  0  0
    3.2486    0.9887   -0.0129 N   0  0  0  0  0  0  0  0  0  0  0  0
    4.5226    0.5236   -0.0178 N   0  0  0  0  0  0  0  0  0  0  0  0
    5.6922    1.2767   -0.0088 C   0  0  0  0  0  0  0  0  0  0  0  0
    6.8911    0.6719   -0.0128 C   0  0  0  0  0  0  0  0  0  0  0  0
    8.1507    1.4105    0.0062 C   0  0  0  0  0  0  0  0  0  0  0  0
    8.7757    1.7743   -1.1935 C   0  0  0  0  0  0  0  0  0  0  0  0
    9.9636    2.5089   -1.1743 C   0  0  0  0  0  0  0  0  0  0  0  0
   10.5340    2.8812    0.0431 C   0  0  0  0  0  0  0  0  0  0  0  0
    9.9175    2.5116    1.2371 C   0  0  0  0  0  0  0  0  0  0  0  0
   10.6255    2.9644    2.7384 Cl  0  0  0  0  0  0  0  0  0  0  0  0
    8.7299    1.7801    1.2260 C   0  0  0  0  0  0  0  0  0  0  0  0
    6.8400   -0.8231   -0.0307 C   0  0  0  0  0  0  0  0  0  0  0  0
    5.7665   -1.5557   -0.0398 N   0  0  0  0  0  0  0  0  0  0  0  0
    4.5753   -0.8739   -0.0304 C   0  0  0  0  0  0  0  0  0  0  0  0
    3.2627   -1.2904   -0.0267 C   0  0  0  0  0  0  0  0  0  0  0  0
    2.6765   -2.8826   -0.0322 Cl  0  0  0  0  0  0  0  0  0  0  0  0
    0.6811    1.0483   -0.0052 H   0  0  0  0  0  0  0  0  0  0  0  0
    0.5911   -0.4800    0.8840 H   0  0  0  0  0  0  0  0  0  0  0  0
    0.5801   -0.4807   -0.8921 H   0  0  0  0  0  0  0  0  0  0  0  0
    5.5569    2.3508    0.0040 H   0  0  0  0  0  0  0  0  0  0  0  0
    8.3414    1.4946   -2.1519 H   0  0  0  0  0  0  0  0  0  0  0  0
   10.4426    2.7951   -2.1080 H   0  0  0  0  0  0  0  0  0  0  0  0
   11.4550    3.4587    0.0544 H   0  0  0  0  0  0  0  0  0  0  0  0
    8.2580    1.5043    2.1664 H   0  0  0  0  0  0  0  0  0  0  0  0
    7.8207   -1.3302   -0.0366 H   0  0  0  0  0  0  0  0  0  0  0  0
  1  2  1  0  0  0  0
  1 19  1  0  0  0  0
  1 20  1  0  0  0  0
  1 21  1  0  0  0  0
  2  3  2  0  0  0  0
  2 17  1  0  0  0  0
  3  4  1  0  0  0  0
  4  5  1  0  0  0  0
  4 16  1  0  0  0  0
  5  6  2  0  0  0  0
  5 22  1  0  0  0  0
  6  7  1  0  0  0  0
  6 14  1  0  0  0  0
  7  8  1  0  0  0  0
  7 13  2  0  0  0  0
  8  9  2  0  0  0  0
  8 23  1  0  0  0  0
  9 10  1  0  0  0  0
  9 24  1  0  0  0  0
 10 11  2  0  0  0  0
 10 25  1  0  0  0  0
 11 12  1  0  0  0  0
 11 13  1  0  0  0  0
 13 26  1  0  0  0  0
 14 15  2  0  0  0  0
 14 27  1  0  0  0  0
 15 16  1  0  0  0  0
 16 17  2  0  0  0  0
 17 18  1  0  0  0  0
M  END
>  <Energy>
71.2454

$$$$

 OpenBabel04232614443D

 40 42  0  0  0  0  0  0  0  0999 V2000
    1.9510   -0.3001    1.7960 C   0  0  0  0  0  0  0  0  0  0  0  0
    0.7282   -0.3564    0.9262 C   0  0  0  0  0  0  0  0  0  0  0  0
    0.4363    0.7182    0.0750 C   0  0  0  0  0  0  0  0  0  0  0  0
   -0.6767    0.6736   -0.7547 C   0  0  0  0  0  0  0  0  0  0  0  0
   -1.4980   -0.4528   -0.7475 C   0  0  0  0  0  0  0  0  0  0  0  0
   -1.2279   -1.5573    0.0836 C   0  0  0  0  0  0  0  0  0  0  0  0
   -2.1062   -2.7279   -0.0432 C   0  0  0  0  0  0  0  0  0  0  0  0
   -3.1051   -2.8647   -0.8905 N   0  0  0  0  0  0  0  0  0  0  0  0
   -3.5157   -4.1588   -0.7076 C   0  0  0  0  0  0  0  0  0  0  0  0
   -4.5710   -4.6832   -1.5049 C   0  0  0  0  0  0  0  0  0  0  0  0
   -5.4111   -5.1312   -2.1758 N   0  0  0  0  0  0  0  0  0  0  0  0
   -2.7677   -4.7929    0.2692 C   0  0  0  0  0  0  0  0  0  0  0  0
   -2.7220   -6.0517    0.8158 N   0  0  0  0  0  0  0  0  0  0  0  0
   -3.0718   -7.2113   -0.0214 C   0  0  0  0  0  0  0  0  0  0  0  0
   -4.2623   -7.9840    0.5495 C   0  0  0  0  0  0  0  0  0  0  0  0
   -3.9419   -8.8471    1.7681 C   0  0  0  0  0  0  0  0  0  0  0  0
   -3.2855   -8.0974    2.9246 C   0  0  0  0  0  0  0  0  0  0  0  0
   -1.8665   -7.6414    2.5904 C   0  0  0  0  0  0  0  0  0  0  0  0
   -1.7694   -6.2738    1.9114 C   0  0  0  0  0  0  0  0  0  0  0  0
   -1.8621   -3.8428    0.7230 O   0  0  0  0  0  0  0  0  0  0  0  0
   -0.1125   -1.4899    0.9313 C   0  0  0  0  0  0  0  0  0  0  0  0
    2.4749    0.6569    1.6862 H   0  0  0  0  0  0  0  0  0  0  0  0
    2.6506   -1.0932    1.5140 H   0  0  0  0  0  0  0  0  0  0  0  0
    1.6778   -0.4081    2.8499 H   0  0  0  0  0  0  0  0  0  0  0  0
    1.0797    1.5953    0.0476 H   0  0  0  0  0  0  0  0  0  0  0  0
   -0.9005    1.5045   -1.4188 H   0  0  0  0  0  0  0  0  0  0  0  0
   -2.3556   -0.4741   -1.4186 H   0  0  0  0  0  0  0  0  0  0  0  0
   -2.2042   -7.8691   -0.1474 H   0  0  0  0  0  0  0  0  0  0  0  0
   -3.3322   -6.9043   -1.0388 H   0  0  0  0  0  0  0  0  0  0  0  0
   -4.6397   -8.6568   -0.2322 H   0  0  0  0  0  0  0  0  0  0  0  0
   -5.0833   -7.2989    0.7920 H   0  0  0  0  0  0  0  0  0  0  0  0
   -3.2987   -9.6830    1.4631 H   0  0  0  0  0  0  0  0  0  0  0  0
   -4.8745   -9.3014    2.1268 H   0  0  0  0  0  0  0  0  0  0  0  0
   -3.2293   -8.7897    3.7744 H   0  0  0  0  0  0  0  0  0  0  0  0
   -3.9088   -7.2556    3.2463 H   0  0  0  0  0  0  0  0  0  0  0  0
   -1.3633   -8.4008    1.9791 H   0  0  0  0  0  0  0  0  0  0  0  0
   -1.2898   -7.5855    3.5224 H   0  0  0  0  0  0  0  0  0  0  0  0
   -0.7470   -6.1524    1.5324 H   0  0  0  0  0  0  0  0  0  0  0  0
   -1.9245   -5.5082    2.6822 H   0  0  0  0  0  0  0  0  0  0  0  0
    0.1235   -2.3250    1.5879 H   0  0  0  0  0  0  0  0  0  0  0  0
  1  2  1  0  0  0  0
  1 22  1  0  0  0  0
  1 23  1  0  0  0  0
  1 24  1  0  0  0  0
  2  3  1  0  0  0  0
  2 21  2  0  0  0  0
  3  4  2  0  0  0  0
  3 25  1  0  0  0  0
  4  5  1  0  0  0  0
  4 26  1  0  0  0  0
  5  6  2  0  0  0  0
  5 27  1  0  0  0  0
  6  7  1  0  0  0  0
  6 21  1  0  0  0  0
  7  8  2  0  0  0  0
  7 20  1  0  0  0  0
  8  9  1  0  0  0  0
  9 10  1  0  0  0  0
  9 12  2  0  0  0  0
 10 11  3  0  0  0  0
 12 13  1  0  0  0  0
 12 20  1  0  0  0  0
 13 14  1  0  0  0  0
 13 19  1  0  0  0  0
 14 15  1  0  0  0  0
 14 28  1  0  0  0  0
 14 29  1  0  0  0  0
 15 16  1  0  0  0  0
 15 30  1  0  0  0  0
 15 31  1  0  0  0  0
 16 17  1  0  0  0  0
 16 32  1  0  0  0  0
 16 33  1  0  0  0  0
 17 18  1  0  0  0  0
 17 34  1  0  0  0  0
 17 35  1  0  0  0  0
 18 19  1  0  0  0  0
 18 36  1  0  0  0  0
 18 37  1  0  0  0  0
 19 38  1  0  0  0  0
 19 39  1  0  0  0  0
 21 40  1  0  0  0  0
M  END
>  <Energy>
69.6224

$$$$

 OpenBabel04232614443D

 34 37  0  0  0  0  0  0  0  0999 V2000
   -2.3787    1.2570    1.1266 C   0  0  0  0  0  0  0  0  0  0  0  0
   -1.5368    0.2521    0.5212 N   0  0  0  0  0  0  0  0  0  0  0  0
   -1.9131   -0.9631   -0.0172 C   0  0  0  0  0  0  0  0  0  0  0  0
   -3.2646   -1.3718   -0.0255 C   0  0  0  0  0  0  0  0  0  0  0  0
   -4.1093   -1.0725   -1.0218 C   0  0  0  0  0  0  0  0  0  0  0  0
   -5.5475   -1.5052   -0.9319 C   0  0  0  0  0  0  0  0  0  0  0  0
   -6.0693   -2.1649   -0.0542 O   0  0  0  0  0  0  0  0  0  0  0  0
   -6.1573   -0.9547   -2.0466 N   0  0  0  0  0  0  0  0  0  0  0  0
   -5.2448   -0.2467   -2.8251 C   0  0  0  0  0  0  0  0  0  0  0  0
   -5.5147    0.4303   -3.9974 C   0  0  0  0  0  0  0  0  0  0  0  0
   -4.4446    1.0638   -4.6318 C   0  0  0  0  0  0  0  0  0  0  0  0
   -3.1464    0.9903   -4.0952 C   0  0  0  0  0  0  0  0  0  0  0  0
   -2.8970    0.2982   -2.9039 C   0  0  0  0  0  0  0  0  0  0  0  0
   -3.9639   -0.3035   -2.2616 C   0  0  0  0  0  0  0  0  0  0  0  0
   -0.8616   -1.6176   -0.4664 N   0  0  0  0  0  0  0  0  0  0  0  0
    0.2180   -0.8075   -0.2372 C   0  0  0  0  0  0  0  0  0  0  0  0
    1.5712   -1.0221   -0.5322 C   0  0  0  0  0  0  0  0  0  0  0  0
    2.4974   -0.0221   -0.2142 C   0  0  0  0  0  0  0  0  0  0  0  0
    2.0835    1.1674    0.3880 C   0  0  0  0  0  0  0  0  0  0  0  0
    0.7370    1.3956    0.6969 C   0  0  0  0  0  0  0  0  0  0  0  0
   -0.1719    0.3814    0.3697 C   0  0  0  0  0  0  0  0  0  0  0  0
   -3.4112    0.9128    1.2022 H   0  0  0  0  0  0  0  0  0  0  0  0
   -2.3358    2.1573    0.5075 H   0  0  0  0  0  0  0  0  0  0  0  0
   -1.9970    1.4672    2.1296 H   0  0  0  0  0  0  0  0  0  0  0  0
   -3.6026   -1.9742    0.8136 H   0  0  0  0  0  0  0  0  0  0  0  0
   -7.1371   -1.0774   -2.2501 H   0  0  0  0  0  0  0  0  0  0  0  0
   -6.5138    0.4740   -4.4150 H   0  0  0  0  0  0  0  0  0  0  0  0
   -4.6115    1.6122   -5.5564 H   0  0  0  0  0  0  0  0  0  0  0  0
   -2.3218    1.4732   -4.6162 H   0  0  0  0  0  0  0  0  0  0  0  0
   -1.8851    0.2336   -2.5182 H   0  0  0  0  0  0  0  0  0  0  0  0
    1.8830   -1.9491   -1.0009 H   0  0  0  0  0  0  0  0  0  0  0  0
    3.5496   -0.1765   -0.4411 H   0  0  0  0  0  0  0  0  0  0  0  0
    2.8219    1.9312    0.6232 H   0  0  0  0  0  0  0  0  0  0  0  0
    0.4225    2.3211    1.1673 H   0  0  0  0  0  0  0  0  0  0  0  0
  1  2  1  0  0  0  0
  1 22  1  0  0  0  0
  1 23  1  0  0  0  0
  1 24  1  0  0  0  0
  2  3  1  0  0  0  0
  2 21  1  0  0  0  0
  3  4  1  0  0  0  0
  3 15  2  0  0  0  0
  4  5  2  0  0  0  0
  4 25  1  0  0  0  0
  5  6  1  0  0  0  0
  5 14  1  0  0  0  0
  6  7  2  0  0  0  0
  6  8  1  0  0  0  0
  8  9  1  0  0  0  0
  8 26  1  0  0  0  0
  9 10  1  0  0  0  0
  9 14  2  0  0  0  0
 10 11  2  0  0  0  0
 10 27  1  0  0  0  0
 11 12  1  0  0  0  0
 11 28  1  0  0  0  0
 12 13  2  0  0  0  0
 12 29  1  0  0  0  0
 13 14  1  0  0  0  0
 13 30  1  0  0  0  0
 15 16  1  0  0  0  0
 16 17  1  0  0  0  0
 16 21  2  0  0  0  0
 17 18  2  0  0  0  0
 17 31  1  0  0  0  0
 18 19  1  0  0  0  0
 18 32  1  0  0  0  0
 19 20  2  0  0  0  0
 19 33  1  0  0  0  0
 20 21  1  0  0  0  0
 20 34  1  0  0  0  0
M  END
>  <Energy>
29.5693

$$$$

 OpenBabel04232614443D

 28 30  0  0  1  0  0  0  0  0999 V2000
    1.3337   -1.4858    2.9112 Cl  0  0  0  0  0  0  0  0  0  0  0  0
    2.6399   -1.3753    1.7721 C   0  0  0  0  0  0  0  0  0  0  0  0
    3.9356   -1.5399    2.3046 C   0  0  0  0  0  0  0  0  0  0  0  0
    4.9647   -1.4833    1.3511 C   0  0  0  0  0  0  0  0  0  0  0  0
    6.2858   -1.6414    1.5224 N   0  0  0  0  0  0  0  0  0  0  0  0
    6.7682   -1.5335    0.2629 N   0  0  0  0  0  0  0  0  0  0  0  0
    8.1523   -1.9297   -0.0578 C   0  0  3  0  0  0  0  0  0  0  0  0
    9.1448   -1.8943    1.1124 C   0  0  0  0  0  0  0  0  0  0  0  0
    9.5638   -0.4709    1.4659 C   0  0  0  0  0  0  0  0  0  0  0  0
   10.0171    0.2780    0.2195 C   0  0  0  0  0  0  0  0  0  0  0  0
    8.9741    0.1727   -0.8830 C   0  0  0  0  0  0  0  0  0  0  0  0
    8.6772   -1.1899   -1.1808 O   0  0  0  0  0  0  0  0  0  0  0  0
    5.8769   -1.2707   -0.7204 N   0  0  0  0  0  0  0  0  0  0  0  0
    4.7080   -1.2476   -0.0693 C   0  0  0  0  0  0  0  0  0  0  0  0
    3.4135   -1.0611   -0.5810 C   0  0  0  0  0  0  0  0  0  0  0  0
    2.3895   -1.1440    0.3828 C   0  0  0  0  0  0  0  0  0  0  0  0
    0.7688   -0.9670   -0.2165 Cl  0  0  0  0  0  0  0  0  0  0  0  0
    4.1301   -1.7217    3.3528 H   0  0  0  0  0  0  0  0  0  0  0  0
    8.0507   -2.9698   -0.3920 H   0  0  0  0  0  0  0  0  0  0  0  0
   10.0478   -2.4401    0.8072 H   0  0  0  0  0  0  0  0  0  0  0  0
    8.7515   -2.4060    1.9974 H   0  0  0  0  0  0  0  0  0  0  0  0
   10.3748   -0.4933    2.2026 H   0  0  0  0  0  0  0  0  0  0  0  0
    8.7244    0.0607    1.9292 H   0  0  0  0  0  0  0  0  0  0  0  0
   10.9579   -0.1638   -0.1320 H   0  0  0  0  0  0  0  0  0  0  0  0
   10.2149    1.3283    0.4575 H   0  0  0  0  0  0  0  0  0  0  0  0
    9.3627    0.6302   -1.7988 H   0  0  0  0  0  0  0  0  0  0  0  0
    8.0571    0.7094   -0.6167 H   0  0  0  0  0  0  0  0  0  0  0  0
    3.2314   -0.8911   -1.6341 H   0  0  0  0  0  0  0  0  0  0  0  0
  1  2  1  0  0  0  0
  2  3  2  0  0  0  0
  2 16  1  0  0  0  0
  3  4  1  0  0  0  0
  3 18  1  0  0  0  0
  4  5  2  0  0  0  0
  4 14  1  0  0  0  0
  5  6  1  0  0  0  0
  6  7  1  0  0  0  0
  6 13  1  0  0  0  0
  7  8  1  0  0  0  0
  7 12  1  0  0  0  0
  7 19  1  0  0  0  0
  8  9  1  0  0  0  0
  8 20  1  0  0  0  0
  8 21  1  0  0  0  0
  9 10  1  0  0  0  0
  9 22  1  0  0  0  0
  9 23  1  0  0  0  0
 10 11  1  0  0  0  0
 10 24  1  0  0  0  0
 10 25  1  0  0  0  0
 11 12  1  0  0  0  0
 11 26  1  0  0  0  0
 11 27  1  0  0  0  0
 13 14  2  0  0  0  0
 14 15  1  0  0  0  0
 15 16  2  0  0  0  0
 15 28  1  0  0  0  0
 16 17  1  0  0  0  0
M  END
>  <Energy>
67.1547

$$$$

 OpenBabel04232614443D

 30 32  0  0  0  0  0  0  0  0999 V2000
    5.7250    0.8949   -1.7506 C   0  0  0  0  0  0  0  0  0  0  0  0
    4.9986    0.2833   -0.6818 O   0  0  0  0  0  0  0  0  0  0  0  0
    5.5392   -0.8923   -0.2379 C   0  0  0  0  0  0  0  0  0  0  0  0
    6.5529   -1.4028   -0.6921 O   0  0  0  0  0  0  0  0  0  0  0  0
    4.6959   -1.4240    0.8919 C   0  0  0  0  0  0  0  0  0  0  0  0
    5.1158   -2.7403    1.3421 N   0  0  0  0  0  0  0  0  0  0  0  0
    4.6306   -3.9617    0.8661 C   0  0  0  0  0  0  0  0  0  0  0  0
    3.7197   -4.2602   -0.1616 C   0  0  0  0  0  0  0  0  0  0  0  0
    3.4225   -5.6063   -0.4004 C   0  0  0  0  0  0  0  0  0  0  0  0
    4.0125   -6.6119    0.3556 C   0  0  0  0  0  0  0  0  0  0  0  0
    3.6987   -7.8893    0.0993 F   0  0  0  0  0  0  0  0  0  0  0  0
    4.9204   -6.3274    1.3715 C   0  0  0  0  0  0  0  0  0  0  0  0
    5.2385   -4.9833    1.6313 C   0  0  0  0  0  0  0  0  0  0  0  0
    6.0803   -4.3258    2.5384 C   0  0  0  0  0  0  0  0  0  0  0  0
    6.9147   -4.7523    3.5232 N   0  0  0  0  0  0  0  0  0  0  0  0
    7.4662   -3.6736    4.0640 C   0  0  0  0  0  0  0  0  0  0  0  0
    8.4563   -3.7008    5.1740 C   0  0  0  0  0  0  0  0  0  0  0  0
    6.9599   -2.1373    3.3903 S   0  0  0  0  0  0  0  0  0  0  0  0
    5.9881   -3.0002    2.3458 C   0  0  0  0  0  0  0  0  0  0  0  0
    5.1603    1.7695   -2.0858 H   0  0  0  0  0  0  0  0  0  0  0  0
    5.8280    0.2068   -2.5955 H   0  0  0  0  0  0  0  0  0  0  0  0
    6.7057    1.2283   -1.3979 H   0  0  0  0  0  0  0  0  0  0  0  0
    3.6521   -1.4977    0.5712 H   0  0  0  0  0  0  0  0  0  0  0  0
    4.7558   -0.7387    1.7432 H   0  0  0  0  0  0  0  0  0  0  0  0
    3.2574   -3.4847   -0.7637 H   0  0  0  0  0  0  0  0  0  0  0  0
    2.7242   -5.8799   -1.1865 H   0  0  0  0  0  0  0  0  0  0  0  0
    5.3717   -7.1279    1.9476 H   0  0  0  0  0  0  0  0  0  0  0  0
    8.6359   -4.7310    5.4980 H   0  0  0  0  0  0  0  0  0  0  0  0
    8.0912   -3.1353    6.0369 H   0  0  0  0  0  0  0  0  0  0  0  0
    9.4126   -3.2772    4.8515 H   0  0  0  0  0  0  0  0  0  0  0  0
  1  2  1  0  0  0  0
  1 20  1  0  0  0  0
  1 21  1  0  0  0  0
  1 22  1  0  0  0  0
  2  3  1  0  0  0  0
  3  4  2  0  0  0  0
  3  5  1  0  0  0  0
  5  6  1  0  0  0  0
  5 23  1  0  0  0  0
  5 24  1  0  0  0  0
  6  7  1  0  0  0  0
  6 19  1  0  0  0  0
  7  8  1  0  0  0  0
  7 13  2  0  0  0  0
  8  9  2  0  0  0  0
  8 25  1  0  0  0  0
  9 10  1  0  0  0  0
  9 26  1  0  0  0  0
 10 11  1  0  0  0  0
 10 12  2  0  0  0  0
 12 13  1  0  0  0  0
 12 27  1  0  0  0  0
 13 14  1  0  0  0  0
 14 15  1  0  0  0  0
 14 19  2  0  0  0  0
 15 16  2  0  0  0  0
 16 17  1  0  0  0  0
 16 18  1  0  0  0  0
 17 28  1  0  0  0  0
 17 29  1  0  0  0  0
 17 30  1  0  0  0  0
 18 19  1  0  0  0  0
M  END
>  <Energy>
24.2045

$$$$

 OpenBabel04232614443D

 37 39  0  0  0  0  0  0  0  0999 V2000
    2.1645    0.4943   -1.6830 C   0  0  0  0  0  0  0  0  0  0  0  0
    1.0680    0.0459   -0.7640 C   0  0  0  0  0  0  0  0  0  0  0  0
    1.2426   -1.0464    0.0952 C   0  0  0  0  0  0  0  0  0  0  0  0
    0.2295   -1.4288    0.9841 C   0  0  0  0  0  0  0  0  0  0  0  0
    0.3678   -2.6668    1.8218 C   0  0  0  0  0  0  0  0  0  0  0  0
   -0.9662   -0.6978    1.0153 C   0  0  0  0  0  0  0  0  0  0  0  0
   -1.2049    0.3027    0.0654 C   0  0  0  0  0  0  0  0  0  0  0  0
   -2.5371    0.9339   -0.1388 C   0  0  0  0  0  0  0  0  0  0  0  0
   -2.5394    2.1475   -0.3741 O   0  0  0  0  0  0  0  0  0  0  0  0
   -3.7321    0.1972   -0.0456 N   0  0  0  0  0  0  0  0  0  0  0  0
   -4.9853    0.9564   -0.0232 C   0  0  0  0  0  0  0  0  0  0  0  0
   -6.0044    0.4399    0.9829 C   0  0  0  0  0  0  0  0  0  0  0  0
   -6.9524    1.1154    1.3818 O   0  0  0  0  0  0  0  0  0  0  0  0
   -5.9189   -0.8878    1.3106 N   0  0  0  0  0  0  0  0  0  0  0  0
   -4.9397   -1.7381    0.7850 C   0  0  0  0  0  0  0  0  0  0  0  0
   -5.0108   -3.1024    1.0730 C   0  0  0  0  0  0  0  0  0  0  0  0
   -4.0524   -3.9711    0.5543 C   0  0  0  0  0  0  0  0  0  0  0  0
   -3.0627   -3.4842   -0.2961 C   0  0  0  0  0  0  0  0  0  0  0  0
   -2.9939   -2.1179   -0.5831 C   0  0  0  0  0  0  0  0  0  0  0  0
   -3.8801   -1.2201    0.0200 C   0  0  0  0  0  0  0  0  0  0  0  0
   -0.1638    0.7096   -0.7800 C   0  0  0  0  0  0  0  0  0  0  0  0
    3.0464   -0.1529   -1.6050 H   0  0  0  0  0  0  0  0  0  0  0  0
    2.4719    1.5140   -1.4297 H   0  0  0  0  0  0  0  0  0  0  0  0
    1.8212    0.4688   -2.7219 H   0  0  0  0  0  0  0  0  0  0  0  0
    2.1733   -1.6101    0.0651 H   0  0  0  0  0  0  0  0  0  0  0  0
    1.3691   -3.1011    1.7363 H   0  0  0  0  0  0  0  0  0  0  0  0
   -0.3489   -3.4228    1.4806 H   0  0  0  0  0  0  0  0  0  0  0  0
    0.1798   -2.4457    2.8759 H   0  0  0  0  0  0  0  0  0  0  0  0
   -1.7443   -0.9783    1.7214 H   0  0  0  0  0  0  0  0  0  0  0  0
   -5.4259    0.8926   -1.0253 H   0  0  0  0  0  0  0  0  0  0  0  0
   -4.8007    2.0118    0.2051 H   0  0  0  0  0  0  0  0  0  0  0  0
   -6.6547   -1.2473    1.9032 H   0  0  0  0  0  0  0  0  0  0  0  0
   -5.7976   -3.4985    1.7089 H   0  0  0  0  0  0  0  0  0  0  0  0
   -4.0845   -5.0301    0.8006 H   0  0  0  0  0  0  0  0  0  0  0  0
   -2.3252   -4.1618   -0.7198 H   0  0  0  0  0  0  0  0  0  0  0  0
   -2.2160   -1.7738   -1.2601 H   0  0  0  0  0  0  0  0  0  0  0  0
   -0.3271    1.5336   -1.4739 H   0  0  0  0  0  0  0  0  0  0  0  0
  1  2  1  0  0  0  0
  1 22  1  0  0  0  0
  1 23  1  0  0  0  0
  1 24  1  0  0  0  0
  2  3  1  0  0  0  0
  2 21  2  0  0  0  0
  3  4  2  0  0  0  0
  3 25  1  0  0  0  0
  4  5  1  0  0  0  0
  4  6  1  0  0  0  0
  5 26  1  0  0  0  0
  5 27  1  0  0  0  0
  5 28  1  0  0  0  0
  6  7  2  0  0  0  0
  6 29  1  0  0  0  0
  7  8  1  0  0  0  0
  7 21  1  0  0  0  0
  8  9  2  0  0  0  0
  8 10  1  0  0  0  0
 10 11  1  0  0  0  0
 10 20  1  0  0  0  0
 11 12  1  0  0  0  0
 11 30  1  0  0  0  0
 11 31  1  0  0  0  0
 12 13  2  0  0  0  0
 12 14  1  0  0  0  0
 14 15  1  0  0  0  0
 14 32  1  0  0  0  0
 15 16  1  0  0  0  0
 15 20  2  0  0  0  0
 16 17  2  0  0  0  0
 16 33  1  0  0  0  0
 17 18  1  0  0  0  0
 17 34  1  0  0  0  0
 18 19  2  0  0  0  0
 18 35  1  0  0  0  0
 19 20  1  0  0  0  0
 19 36  1  0  0  0  0
 21 37  1  0  0  0  0
M  END
>  <Energy>
82.7792

$$$$

 OpenBabel04232614443D

 37 39  0  0  1  0  0  0  0  0999 V2000
    3.0775   -0.9750   -1.1103 C   0  0  0  0  0  0  0  0  0  0  0  0
    2.4867   -0.0269   -0.0897 C   0  0  0  0  0  0  0  0  0  0  0  0
    1.4193   -0.2715    0.4681 O   0  0  0  0  0  0  0  0  0  0  0  0
    3.2356    1.0990    0.1530 N   0  0  0  0  0  0  0  0  0  0  0  0
    4.3215    1.4289   -0.5948 N   0  0  0  0  0  0  0  0  0  0  0  0
    4.6168    2.6273   -0.2031 C   0  0  0  0  0  0  0  0  0  0  0  0
    5.7511    3.4209   -0.6870 C   0  0  0  0  0  0  0  0  0  0  0  0
    6.5275    2.8985   -1.7290 C   0  0  0  0  0  0  0  0  0  0  0  0
    7.6515    3.5879   -2.1805 C   0  0  0  0  0  0  0  0  0  0  0  0
    8.0117    4.8054   -1.5943 C   0  0  0  0  0  0  0  0  0  0  0  0
    9.2436    5.5324   -2.0454 C   0  0  0  0  0  0  0  0  0  0  0  0
    7.2228    5.3315   -0.5616 C   0  0  0  0  0  0  0  0  0  0  0  0
    6.0938    4.6445   -0.1078 C   0  0  0  0  0  0  0  0  0  0  0  0
    3.8270    3.1995    0.7416 O   0  0  0  0  0  0  0  0  0  0  0  0
    2.8775    2.1714    1.0592 C   0  0  3  0  0  0  0  0  0  0  0  0
    2.9827    1.7912    2.5252 C   0  0  0  0  0  0  0  0  0  0  0  0
    1.8385    1.3647    3.2200 C   0  0  0  0  0  0  0  0  0  0  0  0
    1.9171    0.9777    4.5597 C   0  0  0  0  0  0  0  0  0  0  0  0
    3.1399    1.0107    5.2253 C   0  0  0  0  0  0  0  0  0  0  0  0
    4.2851    1.4293    4.5526 C   0  0  0  0  0  0  0  0  0  0  0  0
    4.2088    1.8128    3.2119 C   0  0  0  0  0  0  0  0  0  0  0  0
    2.3539   -1.7592   -1.3470 H   0  0  0  0  0  0  0  0  0  0  0  0
    3.9811   -1.4365   -0.7018 H   0  0  0  0  0  0  0  0  0  0  0  0
    3.3157   -0.4452   -2.0365 H   0  0  0  0  0  0  0  0  0  0  0  0
    6.2696    1.9454   -2.1873 H   0  0  0  0  0  0  0  0  0  0  0  0
    8.2473    3.1600   -2.9840 H   0  0  0  0  0  0  0  0  0  0  0  0
    9.7267    5.0208   -2.8841 H   0  0  0  0  0  0  0  0  0  0  0  0
    9.9655    5.5877   -1.2240 H   0  0  0  0  0  0  0  0  0  0  0  0
    8.9875    6.5450   -2.3721 H   0  0  0  0  0  0  0  0  0  0  0  0
    7.4931    6.2773   -0.0966 H   0  0  0  0  0  0  0  0  0  0  0  0
    5.5048    5.0636    0.7038 H   0  0  0  0  0  0  0  0  0  0  0  0
    1.8733    2.5410    0.8201 H   0  0  0  0  0  0  0  0  0  0  0  0
    0.8763    1.3098    2.7128 H   0  0  0  0  0  0  0  0  0  0  0  0
    1.0242    0.6393    5.0790 H   0  0  0  0  0  0  0  0  0  0  0  0
    3.2019    0.7015    6.2653 H   0  0  0  0  0  0  0  0  0  0  0  0
    5.2412    1.4503    5.0689 H   0  0  0  0  0  0  0  0  0  0  0  0
    5.1197    2.1242    2.7055 H   0  0  0  0  0  0  0  0  0  0  0  0
  1  2  1  0  0  0  0
  1 22  1  0  0  0  0
  1 23  1  0  0  0  0
  1 24  1  0  0  0  0
  2  3  2  0  0  0  0
  2  4  1  0  0  0  0
  4  5  1  0  0  0  0
  4 15  1  0  0  0  0
  5  6  2  0  0  0  0
  6  7  1  0  0  0  0
  6 14  1  0  0  0  0
  7  8  1  0  0  0  0
  7 13  2  0  0  0  0
  8  9  2  0  0  0  0
  8 25  1  0  0  0  0
  9 10  1  0  0  0  0
  9 26  1  0  0  0  0
 10 11  1  0  0  0  0
 10 12  2  0  0  0  0
 11 27  1  0  0  0  0
 11 28  1  0  0  0  0
 11 29  1  0  0  0  0
 12 13  1  0  0  0  0
 12 30  1  0  0  0  0
 13 31  1  0  0  0  0
 14 15  1  0  0  0  0
 15 16  1  0  0  0  0
 15 32  1  0  0  0  0
 16 17  1  0  0  0  0
 16 21  2  0  0  0  0
 17 18  2  0  0  0  0
 17 33  1  0  0  0  0
 18 19  1  0  0  0  0
 18 34  1  0  0  0  0
 19 20  2  0  0  0  0
 19 35  1  0  0  0  0
 20 21  1  0  0  0  0
 20 36  1  0  0  0  0
 21 37  1  0  0  0  0
M  END
>  <Energy>
73.6648

$$$$

 OpenBabel04232614443D

 23 25  0  0  0  0  0  0  0  0999 V2000
   -2.6956    0.7904    0.0202 Cl  0  0  0  0  0  0  0  0  0  0  0  0
   -1.1958   -0.0506    0.0083 C   0  0  0  0  0  0  0  0  0  0  0  0
   -1.1128   -1.3076   -0.5782 C   0  0  0  0  0  0  0  0  0  0  0  0
    0.1108   -1.9826   -0.6035 C   0  0  0  0  0  0  0  0  0  0  0  0
    1.2625   -1.4109   -0.0282 C   0  0  0  0  0  0  0  0  0  0  0  0
    2.4802   -2.1449   -0.0631 N   0  0  0  0  0  0  0  0  0  0  0  0
    3.4404   -2.0089    0.8916 N   0  0  0  0  0  0  0  0  0  0  0  0
    4.4370   -2.8447    0.6274 N   0  0  0  0  0  0  0  0  0  0  0  0
    4.1271   -3.5157   -0.5146 C   0  0  0  0  0  0  0  0  0  0  0  0
    4.8355   -4.4691   -1.2546 C   0  0  0  0  0  0  0  0  0  0  0  0
    4.2386   -4.9400   -2.4252 C   0  0  0  0  0  0  0  0  0  0  0  0
    2.9861   -4.4579   -2.7891 C   0  0  0  0  0  0  0  0  0  0  0  0
    2.2587   -3.5466   -2.1000 N   0  0  0  0  0  0  0  0  0  0  0  0
    2.8805   -3.1167   -0.9756 C   0  0  0  0  0  0  0  0  0  0  0  0
    1.1627   -0.1384    0.5646 C   0  0  0  0  0  0  0  0  0  0  0  0
    2.4994    0.7646    1.1929 Cl  0  0  0  0  0  0  0  0  0  0  0  0
   -0.0679    0.5351    0.5741 C   0  0  0  0  0  0  0  0  0  0  0  0
   -1.9935   -1.7714   -1.0163 H   0  0  0  0  0  0  0  0  0  0  0  0
    0.1270   -2.9753   -1.0505 H   0  0  0  0  0  0  0  0  0  0  0  0
    5.8141   -4.8094   -0.9356 H   0  0  0  0  0  0  0  0  0  0  0  0
    4.7478   -5.6672   -3.0495 H   0  0  0  0  0  0  0  0  0  0  0  0
    2.5139   -4.8114   -3.7042 H   0  0  0  0  0  0  0  0  0  0  0  0
   -0.1405    1.5299    1.0089 H   0  0  0  0  0  0  0  0  0  0  0  0
  1  2  1  0  0  0  0
  2  3  1  0  0  0  0
  2 17  2  0  0  0  0
  3  4  2  0  0  0  0
  3 18  1  0  0  0  0
  4  5  1  0  0  0  0
  4 19  1  0  0  0  0
  5  6  1  0  0  0  0
  5 15  2  0  0  0  0
  6  7  1  0  0  0  0
  6 14  1  0  0  0  0
  7  8  2  0  0  0  0
  8  9  1  0  0  0  0
  9 10  1  0  0  0  0
  9 14  2  0  0  0  0
 10 11  2  0  0  0  0
 10 20  1  0  0  0  0
 11 12  1  0  0  0  0
 11 21  1  0  0  0  0
 12 13  2  0  0  0  0
 12 22  1  0  0  0  0
 13 14  1  0  0  0  0
 15 16  1  0  0  0  0
 15 17  1  0  0  0  0
 17 23  1  0  0  0  0
M  END
>  <Energy>
78.9345

$$$$

 OpenBabel04232614443D

 43 44  0  0  0  0  0  0  0  0999 V2000
    0.9272   -0.0462    0.0059 C   0  0  0  0  0  0  0  0  0  0  0  0
    2.4422   -0.1149   -0.0267 C   0  0  0  0  0  0  0  0  0  0  0  0
    3.0908   -1.3516   -0.0340 C   0  0  0  0  0  0  0  0  0  0  0  0
    2.3711   -2.5211   -0.0300 O   0  0  0  0  0  0  0  0  0  0  0  0
    4.4899   -1.4728   -0.0313 C   0  0  0  0  0  0  0  0  0  0  0  0
    5.1096   -2.8484   -0.0232 C   0  0  0  0  0  0  0  0  0  0  0  0
    5.2736   -0.2812   -0.0630 C   0  0  0  0  0  0  0  0  0  0  0  0
    6.6919   -0.0718   -0.1010 C   0  0  0  0  0  0  0  0  0  0  0  0
    7.8302   -1.0295   -0.1020 C   0  0  0  0  0  0  0  0  0  0  0  0
    6.8748    1.2815   -0.1758 C   0  0  0  0  0  0  0  0  0  0  0  0
    5.6806    1.9497   -0.0491 N   0  0  0  0  0  0  0  0  0  0  0  0
    5.6188    3.3640   -0.0061 C   0  0  0  0  0  0  0  0  0  0  0  0
    4.8568    3.9441   -0.7705 O   0  0  0  0  0  0  0  0  0  0  0  0
    6.6366    4.0968    0.9105 C   0  0  0  0  0  0  0  0  0  0  0  0
    7.7840    4.6499    0.0485 C   0  0  0  0  0  0  0  0  0  0  0  0
    5.8981    5.3071    1.5313 C   0  0  0  0  0  0  0  0  0  0  0  0
    7.1924    3.2897    2.0995 C   0  0  0  0  0  0  0  0  0  0  0  0
    4.6399    0.9911   -0.0743 C   0  0  0  0  0  0  0  0  0  0  0  0
    3.2062    1.0970   -0.0373 C   0  0  0  0  0  0  0  0  0  0  0  0
    2.4180    2.3890   -0.0065 C   0  0  0  0  0  0  0  0  0  0  0  0
    0.4471   -1.0188    0.1414 H   0  0  0  0  0  0  0  0  0  0  0  0
    0.5518    0.3751   -0.9324 H   0  0  0  0  0  0  0  0  0  0  0  0
    0.5842    0.5618    0.8482 H   0  0  0  0  0  0  0  0  0  0  0  0
    1.5996   -2.4048   -0.6057 H   0  0  0  0  0  0  0  0  0  0  0  0
    4.3795   -3.6617   -0.0029 H   0  0  0  0  0  0  0  0  0  0  0  0
    5.7356   -2.9655    0.8668 H   0  0  0  0  0  0  0  0  0  0  0  0
    5.7096   -2.9899   -0.9279 H   0  0  0  0  0  0  0  0  0  0  0  0
    7.5357   -2.0755   -0.1121 H   0  0  0  0  0  0  0  0  0  0  0  0
    8.4435   -0.8705    0.7925 H   0  0  0  0  0  0  0  0  0  0  0  0
    8.4641   -0.8588   -0.9785 H   0  0  0  0  0  0  0  0  0  0  0  0
    7.8035    1.8197   -0.3040 H   0  0  0  0  0  0  0  0  0  0  0  0
    7.4033    5.3252   -0.7266 H   0  0  0  0  0  0  0  0  0  0  0  0
    8.3369    3.8601   -0.4660 H   0  0  0  0  0  0  0  0  0  0  0  0
    8.5032    5.2108    0.6560 H   0  0  0  0  0  0  0  0  0  0  0  0
    5.4971    5.9779    0.7641 H   0  0  0  0  0  0  0  0  0  0  0  0
    6.5718    5.9003    2.1628 H   0  0  0  0  0  0  0  0  0  0  0  0
    5.0592    4.9781    2.1551 H   0  0  0  0  0  0  0  0  0  0  0  0
    7.9124    2.5241    1.8003 H   0  0  0  0  0  0  0  0  0  0  0  0
    6.3879    2.7974    2.6574 H   0  0  0  0  0  0  0  0  0  0  0  0
    7.7323    3.9393    2.7997 H   0  0  0  0  0  0  0  0  0  0  0  0
    3.0147    3.2829    0.1060 H   0  0  0  0  0  0  0  0  0  0  0  0
    1.7448    2.3990    0.8560 H   0  0  0  0  0  0  0  0  0  0  0  0
    1.8255    2.4866   -0.9241 H   0  0  0  0  0  0  0  0  0  0  0  0
  1  2  1  0  0  0  0
  1 21  1  0  0  0  0
  1 22  1  0  0  0  0
  1 23  1  0  0  0  0
  2  3  1  0  0  0  0
  2 19  2  0  0  0  0
  3  4  1  0  0  0  0
  3  5  2  0  0  0  0
  4 24  1  0  0  0  0
  5  6  1  0  0  0  0
  5  7  1  0  0  0  0
  6 25  1  0  0  0  0
  6 26  1  0  0  0  0
  6 27  1  0  0  0  0
  7  8  1  0  0  0  0
  7 18  2  0  0  0  0
  8  9  1  0  0  0  0
  8 10  2  0  0  0  0
  9 28  1  0  0  0  0
  9 29  1  0  0  0  0
  9 30  1  0  0  0  0
 10 11  1  0  0  0  0
 10 31  1  0  0  0  0
 11 12  1  0  0  0  0
 11 18  1  0  0  0  0
 12 13  2  0  0  0  0
 12 14  1  0  0  0  0
 14 15  1  0  0  0  0
 14 16  1  0  0  0  0
 14 17  1  0  0  0  0
 15 32  1  0  0  0  0
 15 33  1  0  0  0  0
 15 34  1  0  0  0  0
 16 35  1  0  0  0  0
 16 36  1  0  0  0  0
 16 37  1  0  0  0  0
 17 38  1  0  0  0  0
 17 39  1  0  0  0  0
 17 40  1  0  0  0  0
 18 19  1  0  0  0  0
 19 20  1  0  0  0  0
 20 41  1  0  0  0  0
 20 42  1  0  0  0  0
 20 43  1  0  0  0  0
M  END
>  <Energy>
92.0346

$$$$

 OpenBabel04232614443D

 26 28  0  0  0  0  0  0  0  0999 V2000
    2.6103    1.2776    0.4421 F   0  0  0  0  0  0  0  0  0  0  0  0
    2.2984    0.0212    0.0214 C   0  0  0  0  0  0  0  0  0  0  0  0
    0.9541    0.0200   -0.1884 F   0  0  0  0  0  0  0  0  0  0  0  0
    2.8866   -0.1255   -1.1959 F   0  0  0  0  0  0  0  0  0  0  0  0
    2.7199   -1.0091    0.9783 C   0  0  0  0  0  0  0  0  0  0  0  0
    3.3816   -0.8727    2.1161 N   0  0  0  0  0  0  0  0  0  0  0  0
    3.5266   -2.1205    2.6765 N   0  0  0  0  0  0  0  0  0  0  0  0
    2.9541   -2.9857    1.8706 C   0  0  0  0  0  0  0  0  0  0  0  0
    2.7716   -4.3790    1.9461 C   0  0  0  0  0  0  0  0  0  0  0  0
    2.1309   -5.0085    0.9533 C   0  0  0  0  0  0  0  0  0  0  0  0
    1.6565   -4.1879   -0.2079 C   0  0  0  0  0  0  0  0  0  0  0  0
    0.9702   -4.9234   -1.3142 C   0  0  0  0  0  0  0  0  0  0  0  0
   -0.0061   -4.2536   -2.0638 C   0  0  0  0  0  0  0  0  0  0  0  0
   -0.6786   -4.9123   -3.0961 C   0  0  0  0  0  0  0  0  0  0  0  0
   -0.3754   -6.2403   -3.3910 C   0  0  0  0  0  0  0  0  0  0  0  0
    0.6090   -6.9076   -2.6649 C   0  0  0  0  0  0  0  0  0  0  0  0
    1.2871   -6.2511   -1.6343 C   0  0  0  0  0  0  0  0  0  0  0  0
    1.7855   -2.8924   -0.2894 N   0  0  0  0  0  0  0  0  0  0  0  0
    2.4372   -2.3317    0.7711 N   0  0  0  0  0  0  0  0  0  0  0  0
    3.1347   -4.9099    2.8192 H   0  0  0  0  0  0  0  0  0  0  0  0
    1.9333   -6.0713    1.0011 H   0  0  0  0  0  0  0  0  0  0  0  0
   -0.2547   -3.2165   -1.8474 H   0  0  0  0  0  0  0  0  0  0  0  0
   -1.4380   -4.3874   -3.6707 H   0  0  0  0  0  0  0  0  0  0  0  0
   -0.9002   -6.7523   -4.1941 H   0  0  0  0  0  0  0  0  0  0  0  0
    0.8549   -7.9391   -2.9070 H   0  0  0  0  0  0  0  0  0  0  0  0
    2.0724   -6.7908   -1.1142 H   0  0  0  0  0  0  0  0  0  0  0  0
  1  2  1  0  0  0  0
  2  3  1  0  0  0  0
  2  4  1  0  0  0  0
  2  5  1  0  0  0  0
  5  6  2  0  0  0  0
  5 19  1  0  0  0  0
  6  7  1  0  0  0  0
  7  8  2  0  0  0  0
  8  9  1  0  0  0  0
  8 19  1  0  0  0  0
  9 10  2  0  0  0  0
  9 20  1  0  0  0  0
 10 11  1  0  0  0  0
 10 21  1  0  0  0  0
 11 12  1  0  0  0  0
 11 18  2  0  0  0  0
 12 13  1  0  0  0  0
 12 17  2  0  0  0  0
 13 14  2  0  0  0  0
 13 22  1  0  0  0  0
 14 15  1  0  0  0  0
 14 23  1  0  0  0  0
 15 16  2  0  0  0  0
 15 24  1  0  0  0  0
 16 17  1  0  0  0  0
 16 25  1  0  0  0  0
 17 26  1  0  0  0  0
 18 19  1  0  0  0  0
M  END
>  <Energy>
59.2255

$$$$

 OpenBabel04232614443D

 34 36  0  0  0  0  0  0  0  0999 V2000
    4.0380    1.3416   -2.1139 C   0  0  0  0  0  0  0  0  0  0  0  0
    3.9554    0.7557   -0.7176 C   0  0  0  0  0  0  0  0  0  0  0  0
    3.2444    1.2549    0.2546 N   0  0  0  0  0  0  0  0  0  0  0  0
    2.5887    2.4406   -0.0504 N   0  0  0  0  0  0  0  0  0  0  0  0
    1.5692    2.7346    0.7040 C   0  0  0  0  0  0  0  0  0  0  0  0
    0.9444    1.6972    2.0232 S   0  0  0  0  0  0  0  0  0  0  0  0
   -0.4113    2.8176    2.2863 C   0  0  0  0  0  0  0  0  0  0  0  0
   -1.4473    2.6630    3.1972 C   0  0  0  0  0  0  0  0  0  0  0  0
   -2.4326    3.6468    3.2487 C   0  0  0  0  0  0  0  0  0  0  0  0
   -2.3647    4.7558    2.3970 C   0  0  0  0  0  0  0  0  0  0  0  0
   -1.3113    4.8963    1.4833 C   0  0  0  0  0  0  0  0  0  0  0  0
   -0.3203    3.9231    1.4202 C   0  0  0  0  0  0  0  0  0  0  0  0
    0.7981    3.8859    0.5844 N   0  0  0  0  0  0  0  0  0  0  0  0
    1.0853    4.8866   -0.4193 C   0  0  0  0  0  0  0  0  0  0  0  0
    4.7560   -0.4846   -0.4703 C   0  0  0  0  0  0  0  0  0  0  0  0
    4.7188   -1.1111    0.7716 C   0  0  0  0  0  0  0  0  0  0  0  0
    5.5116   -2.2382    0.9704 C   0  0  0  0  0  0  0  0  0  0  0  0
    6.3105   -2.7010   -0.0691 C   0  0  0  0  0  0  0  0  0  0  0  0
    6.2801   -2.0190   -1.2747 C   0  0  0  0  0  0  0  0  0  0  0  0
    5.5222   -0.9246   -1.5019 N   0  0  0  0  0  0  0  0  0  0  0  0
    3.4654    2.2639   -2.2254 H   0  0  0  0  0  0  0  0  0  0  0  0
    3.6450    0.6151   -2.8324 H   0  0  0  0  0  0  0  0  0  0  0  0
    5.0807    1.5638   -2.3600 H   0  0  0  0  0  0  0  0  0  0  0  0
   -1.4908    1.7988    3.8498 H   0  0  0  0  0  0  0  0  0  0  0  0
   -3.2576    3.5518    3.9503 H   0  0  0  0  0  0  0  0  0  0  0  0
   -3.1406    5.5171    2.4443 H   0  0  0  0  0  0  0  0  0  0  0  0
   -1.2989    5.7684    0.8396 H   0  0  0  0  0  0  0  0  0  0  0  0
    0.5237    5.8150   -0.2874 H   0  0  0  0  0  0  0  0  0  0  0  0
    0.8667    4.4959   -1.4186 H   0  0  0  0  0  0  0  0  0  0  0  0
    2.1460    5.1619   -0.3855 H   0  0  0  0  0  0  0  0  0  0  0  0
    4.0937   -0.7296    1.5729 H   0  0  0  0  0  0  0  0  0  0  0  0
    5.5084   -2.7456    1.9311 H   0  0  0  0  0  0  0  0  0  0  0  0
    6.9439   -3.5722    0.0578 H   0  0  0  0  0  0  0  0  0  0  0  0
    6.8877   -2.3438   -2.1150 H   0  0  0  0  0  0  0  0  0  0  0  0
  1  2  1  0  0  0  0
  1 21  1  0  0  0  0
  1 22  1  0  0  0  0
  1 23  1  0  0  0  0
  2  3  2  0  0  0  0
  2 15  1  0  0  0  0
  3  4  1  0  0  0  0
  4  5  2  0  0  0  0
  5  6  1  0  0  0  0
  5 13  1  0  0  0  0
  6  7  1  0  0  0  0
  7  8  1  0  0  0  0
  7 12  2  0  0  0  0
  8  9  2  0  0  0  0
  8 24  1  0  0  0  0
  9 10  1  0  0  0  0
  9 25  1  0  0  0  0
 10 11  2  0  0  0  0
 10 26  1  0  0  0  0
 11 12  1  0  0  0  0
 11 27  1  0  0  0  0
 12 13  1  0  0  0  0
 13 14  1  0  0  0  0
 14 28  1  0  0  0  0
 14 29  1  0  0  0  0
 14 30  1  0  0  0  0
 15 16  1  0  0  0  0
 15 20  2  0  0  0  0
 16 17  2  0  0  0  0
 16 31  1  0  0  0  0
 17 18  1  0  0  0  0
 17 32  1  0  0  0  0
 18 19  2  0  0  0  0
 18 33  1  0  0  0  0
 19 20  1  0  0  0  0
 19 34  1  0  0  0  0
M  END
>  <Energy>
78.4381

$$$$

 OpenBabel04232614443D

 36 38  0  0  0  0  0  0  0  0999 V2000
   -2.4710    1.0305   -0.3225 C   0  0  0  0  0  0  0  0  0  0  0  0
   -1.1749    0.3588    0.0143 C   0  0  0  0  0  0  0  0  0  0  0  0
   -0.0951    1.0765    0.4856 C   0  0  0  0  0  0  0  0  0  0  0  0
    1.0374    0.3551    0.8114 C   0  0  0  0  0  0  0  0  0  0  0  0
    2.2947    1.0435    1.2472 C   0  0  0  0  0  0  0  0  0  0  0  0
    1.0930   -0.9871    0.7044 N   0  0  0  0  0  0  0  0  0  0  0  0
    0.0099   -1.6121    0.1920 C   0  0  0  0  0  0  0  0  0  0  0  0
    0.0834   -3.0353   -0.0186 N   0  0  0  0  0  0  0  0  0  0  0  0
    0.8576   -3.8173    0.7990 N   0  0  0  0  0  0  0  0  0  0  0  0
    0.4746   -5.0672    0.5366 C   0  0  0  0  0  0  0  0  0  0  0  0
    0.9874   -6.2017    1.3409 C   0  0  0  0  0  0  0  0  0  0  0  0
   -0.3992   -5.1211   -0.5662 C   0  0  0  0  0  0  0  0  0  0  0  0
   -0.5957   -3.8081   -0.9699 C   0  0  0  0  0  0  0  0  0  0  0  0
   -1.3030   -3.3163   -2.1639 C   0  0  0  0  0  0  0  0  0  0  0  0
   -2.4269   -4.0011   -2.6502 C   0  0  0  0  0  0  0  0  0  0  0  0
   -3.0975   -3.5627   -3.7972 C   0  0  0  0  0  0  0  0  0  0  0  0
   -2.6595   -2.4266   -4.4729 C   0  0  0  0  0  0  0  0  0  0  0  0
   -1.5343   -1.7466   -4.0191 C   0  0  0  0  0  0  0  0  0  0  0  0
   -0.8485   -2.2032   -2.8901 C   0  0  0  0  0  0  0  0  0  0  0  0
   -1.1285   -0.9744   -0.1610 N   0  0  0  0  0  0  0  0  0  0  0  0
   -2.3999    2.1188   -0.2338 H   0  0  0  0  0  0  0  0  0  0  0  0
   -3.2543    0.6815    0.3576 H   0  0  0  0  0  0  0  0  0  0  0  0
   -2.7609    0.7893   -1.3498 H   0  0  0  0  0  0  0  0  0  0  0  0
   -0.1310    2.1539    0.5894 H   0  0  0  0  0  0  0  0  0  0  0  0
    2.1456    2.1205    1.3692 H   0  0  0  0  0  0  0  0  0  0  0  0
    3.0755    0.8913    0.4963 H   0  0  0  0  0  0  0  0  0  0  0  0
    2.6361    0.6344    2.2029 H   0  0  0  0  0  0  0  0  0  0  0  0
    1.5064   -5.8557    2.2410 H   0  0  0  0  0  0  0  0  0  0  0  0
    1.6854   -6.8048    0.7522 H   0  0  0  0  0  0  0  0  0  0  0  0
    0.1611   -6.8448    1.6599 H   0  0  0  0  0  0  0  0  0  0  0  0
   -0.7982   -6.0066   -1.0361 H   0  0  0  0  0  0  0  0  0  0  0  0
   -2.7964   -4.8868   -2.1400 H   0  0  0  0  0  0  0  0  0  0  0  0
   -3.9641   -4.1091   -4.1596 H   0  0  0  0  0  0  0  0  0  0  0  0
   -3.1895   -2.0763   -5.3544 H   0  0  0  0  0  0  0  0  0  0  0  0
   -1.1833   -0.8609   -4.5424 H   0  0  0  0  0  0  0  0  0  0  0  0
    0.0429   -1.6618   -2.5839 H   0  0  0  0  0  0  0  0  0  0  0  0
  1  2  1  0  0  0  0
  1 21  1  0  0  0  0
  1 22  1  0  0  0  0
  1 23  1  0  0  0  0
  2  3  1  0  0  0  0
  2 20  2  0  0  0  0
  3  4  2  0  0  0  0
  3 24  1  0  0  0  0
  4  5  1  0  0  0  0
  4  6  1  0  0  0  0
  5 25  1  0  0  0  0
  5 26  1  0  0  0  0
  5 27  1  0  0  0  0
  6  7  2  0  0  0  0
  7  8  1  0  0  0  0
  7 20  1  0  0  0  0
  8  9  1  0  0  0  0
  8 13  1  0  0  0  0
  9 10  2  0  0  0  0
 10 11  1  0  0  0  0
 10 12  1  0  0  0  0
 11 28  1  0  0  0  0
 11 29  1  0  0  0  0
 11 30  1  0  0  0  0
 12 13  2  0  0  0  0
 12 31  1  0  0  0  0
 13 14  1  0  0  0  0
 14 15  1  0  0  0  0
 14 19  2  0  0  0  0
 15 16  2  0  0  0  0
 15 32  1  0  0  0  0
 16 17  1  0  0  0  0
 16 33  1  0  0  0  0
 17 18  2  0  0  0  0
 17 34  1  0  0  0  0
 18 19  1  0  0  0  0
 18 35  1  0  0  0  0
 19 36  1  0  0  0  0
M  END
>  <Energy>
105.358

$$$$

 OpenBabel04232614443D

 34 37  0  0  0  0  0  0  0  0999 V2000
    1.0219   -0.0879   -0.0020 C   0  0  0  0  0  0  0  0  0  0  0  0
    2.5166   -0.1377   -0.0007 C   0  0  0  0  0  0  0  0  0  0  0  0
    3.2745    1.1110    0.0752 C   0  0  0  0  0  0  0  0  0  0  0  0
    4.6216    1.1237    0.1447 C   0  0  0  0  0  0  0  0  0  0  0  0
    5.3401   -0.1052    0.1300 C   0  0  0  0  0  0  0  0  0  0  0  0
    6.6269   -0.3668    0.2304 N   0  0  0  0  0  0  0  0  0  0  0  0
    6.7217   -1.7313    0.0855 C   0  0  0  0  0  0  0  0  0  0  0  0
    7.9962   -2.4783    0.1176 C   0  0  0  0  0  0  0  0  0  0  0  0
    9.2362   -1.9482    0.3680 C   0  0  0  0  0  0  0  0  0  0  0  0
   10.1216   -3.0550    0.3563 C   0  0  0  0  0  0  0  0  0  0  0  0
   11.5499   -3.0595    0.6588 C   0  0  0  0  0  0  0  0  0  0  0  0
   12.1544   -4.2010    1.2030 C   0  0  0  0  0  0  0  0  0  0  0  0
   13.4981   -4.1804    1.5830 C   0  0  0  0  0  0  0  0  0  0  0  0
   14.2529   -3.0236    1.4099 C   0  0  0  0  0  0  0  0  0  0  0  0
   13.6726   -1.8900    0.8409 C   0  0  0  0  0  0  0  0  0  0  0  0
   12.3275   -1.9076    0.4657 C   0  0  0  0  0  0  0  0  0  0  0  0
    9.4505   -4.1847    0.0690 N   0  0  0  0  0  0  0  0  0  0  0  0
    8.1265   -3.8194   -0.0747 O   0  0  0  0  0  0  0  0  0  0  0  0
    5.4853   -2.3063   -0.0884 C   0  0  0  0  0  0  0  0  0  0  0  0
    4.5940   -1.2684   -0.0184 N   0  0  0  0  0  0  0  0  0  0  0  0
    3.2040   -1.2941   -0.0686 C   0  0  0  0  0  0  0  0  0  0  0  0
    0.6422    0.9395   -0.0231 H   0  0  0  0  0  0  0  0  0  0  0  0
    0.6257   -0.5668    0.8992 H   0  0  0  0  0  0  0  0  0  0  0  0
    0.6192   -0.6060   -0.8790 H   0  0  0  0  0  0  0  0  0  0  0  0
    2.7281    2.0506    0.0603 H   0  0  0  0  0  0  0  0  0  0  0  0
    5.1808    2.0502    0.1918 H   0  0  0  0  0  0  0  0  0  0  0  0
    9.4550   -0.9133    0.5844 H   0  0  0  0  0  0  0  0  0  0  0  0
   11.5747   -5.1096    1.3578 H   0  0  0  0  0  0  0  0  0  0  0  0
   13.9484   -5.0662    2.0241 H   0  0  0  0  0  0  0  0  0  0  0  0
   15.2956   -3.0035    1.7190 H   0  0  0  0  0  0  0  0  0  0  0  0
   14.2646   -0.9906    0.6977 H   0  0  0  0  0  0  0  0  0  0  0  0
   11.8985   -1.0118    0.0243 H   0  0  0  0  0  0  0  0  0  0  0  0
    5.1745   -3.3296   -0.2387 H   0  0  0  0  0  0  0  0  0  0  0  0
    2.7305   -2.2658   -0.1401 H   0  0  0  0  0  0  0  0  0  0  0  0
  1  2  1  0  0  0  0
  1 22  1  0  0  0  0
  1 23  1  0  0  0  0
  1 24  1  0  0  0  0
  2  3  1  0  0  0  0
  2 21  2  0  0  0  0
  3  4  2  0  0  0  0
  3 25  1  0  0  0  0
  4  5  1  0  0  0  0
  4 26  1  0  0  0  0
  5  6  2  0  0  0  0
  5 20  1  0  0  0  0
  6  7  1  0  0  0  0
  7  8  1  0  0  0  0
  7 19  2  0  0  0  0
  8  9  2  0  0  0  0
  8 18  1  0  0  0  0
  9 10  1  0  0  0  0
  9 27  1  0  0  0  0
 10 11  1  0  0  0  0
 10 17  2  0  0  0  0
 11 12  1  0  0  0  0
 11 16  2  0  0  0  0
 12 13  2  0  0  0  0
 12 28  1  0  0  0  0
 13 14  1  0  0  0  0
 13 29  1  0  0  0  0
 14 15  2  0  0  0  0
 14 30  1  0  0  0  0
 15 16  1  0  0  0  0
 15 31  1  0  0  0  0
 16 32  1  0  0  0  0
 17 18  1  0  0  0  0
 19 20  1  0  0  0  0
 19 33  1  0  0  0  0
 20 21  1  0  0  0  0
 21 34  1  0  0  0  0
M  END
>  <Energy>
49.2042

$$$$

 OpenBabel04232614443D

 27 30  0  0  0  0  0  0  0  0999 V2000
    2.7155    1.9729   -0.3598 C   0  0  0  0  0  0  0  0  0  0  0  0
    2.9283    0.2322    0.0748 S   0  0  0  0  0  0  0  0  0  0  0  0
    3.4610    0.3684    1.7499 C   0  0  0  0  0  0  0  0  0  0  0  0
    3.5315    1.5523    2.3051 N   0  0  0  0  0  0  0  0  0  0  0  0
    3.9638    1.5968    3.6056 C   0  0  0  0  0  0  0  0  0  0  0  0
    4.1303    3.0834    4.4709 S   0  0  0  0  0  0  0  0  0  0  0  0
    4.6879    2.2627    5.8241 C   0  0  0  0  0  0  0  0  0  0  0  0
    4.7502    0.9027    5.6806 C   0  0  0  0  0  0  0  0  0  0  0  0
    4.3341    0.5238    4.4064 C   0  0  0  0  0  0  0  0  0  0  0  0
    4.2295   -0.7794    3.7486 C   0  0  0  0  0  0  0  0  0  0  0  0
    4.4860   -1.9895    4.1768 N   0  0  0  0  0  0  0  0  0  0  0  0
    4.2174   -2.8481    3.1267 N   0  0  0  0  0  0  0  0  0  0  0  0
    3.8107   -2.1242    2.1029 C   0  0  0  0  0  0  0  0  0  0  0  0
    3.7997   -0.8035    2.4480 N   0  0  0  0  0  0  0  0  0  0  0  0
    5.2593    0.2484    6.9070 C   0  0  0  0  0  0  0  0  0  0  0  0
    5.8493    1.4603    7.6966 C   0  0  0  0  0  0  0  0  0  0  0  0
    5.1438    2.7427    7.1502 C   0  0  0  0  0  0  0  0  0  0  0  0
    2.3874    2.0425   -1.4005 H   0  0  0  0  0  0  0  0  0  0  0  0
    3.6596    2.5159   -0.2615 H   0  0  0  0  0  0  0  0  0  0  0  0
    1.9540    2.4393    0.2710 H   0  0  0  0  0  0  0  0  0  0  0  0
    3.5269   -2.5040    1.1318 H   0  0  0  0  0  0  0  0  0  0  0  0
    6.0269   -0.5028    6.7021 H   0  0  0  0  0  0  0  0  0  0  0  0
    4.4384   -0.2112    7.4672 H   0  0  0  0  0  0  0  0  0  0  0  0
    6.9249    1.5301    7.4853 H   0  0  0  0  0  0  0  0  0  0  0  0
    5.7334    1.3489    8.7793 H   0  0  0  0  0  0  0  0  0  0  0  0
    5.8406    3.5831    7.0918 H   0  0  0  0  0  0  0  0  0  0  0  0
    4.2915    3.0109    7.7825 H   0  0  0  0  0  0  0  0  0  0  0  0
  1  2  1  0  0  0  0
  1 18  1  0  0  0  0
  1 19  1  0  0  0  0
  1 20  1  0  0  0  0
  2  3  1  0  0  0  0
  3  4  2  0  0  0  0
  3 14  1  0  0  0  0
  4  5  1  0  0  0  0
  5  6  1  0  0  0  0
  5  9  2  0  0  0  0
  6  7  1  0  0  0  0
  7  8  2  0  0  0  0
  7 17  1  0  0  0  0
  8  9  1  0  0  0  0
  8 15  1  0  0  0  0
  9 10  1  0  0  0  0
 10 11  2  0  0  0  0
 10 14  1  0  0  0  0
 11 12  1  0  0  0  0
 12 13  2  0  0  0  0
 13 14  1  0  0  0  0
 13 21  1  0  0  0  0
 15 16  1  0  0  0  0
 15 22  1  0  0  0  0
 15 23  1  0  0  0  0
 16 17  1  0  0  0  0
 16 24  1  0  0  0  0
 16 25  1  0  0  0  0
 17 26  1  0  0  0  0
 17 27  1  0  0  0  0
M  END
>  <Energy>
29.4499

$$$$

 OpenBabel04232614443D

 33 36  0  0  0  0  0  0  0  0999 V2000
    1.4291    0.0965    0.0097 C   0  0  0  0  0  0  0  0  0  0  0  0
    2.8625    0.0318    0.0524 N   0  0  0  0  0  0  0  0  0  0  0  0
    3.6541   -1.1192    0.0225 C   0  0  0  0  0  0  0  0  0  0  0  0
    3.3453   -2.4590    0.0056 C   0  0  0  0  0  0  0  0  0  0  0  0
    4.4089   -3.3799   -0.0150 C   0  0  0  0  0  0  0  0  0  0  0  0
    5.7590   -2.9579   -0.0217 C   0  0  0  0  0  0  0  0  0  0  0  0
    6.0860   -1.6047   -0.0118 C   0  0  0  0  0  0  0  0  0  0  0  0
    5.0175   -0.7410    0.0107 C   0  0  0  0  0  0  0  0  0  0  0  0
    4.9863    0.6407    0.0162 N   0  0  0  0  0  0  0  0  0  0  0  0
    5.8518    1.6728   -0.0118 C   0  0  0  0  0  0  0  0  0  0  0  0
    5.0194    2.7860   -0.0209 C   0  0  0  0  0  0  0  0  0  0  0  0
    5.5051    4.1590   -0.0760 C   0  0  0  0  0  0  0  0  0  0  0  0
    6.7232    4.4641   -0.7071 C   0  0  0  0  0  0  0  0  0  0  0  0
    7.2124    5.7749   -0.7360 C   0  0  0  0  0  0  0  0  0  0  0  0
    6.4878    6.8045   -0.1333 C   0  0  0  0  0  0  0  0  0  0  0  0
    6.9940    8.1480   -0.1527 C   0  0  0  0  0  0  0  0  0  0  0  0
    7.4093    9.2297   -0.1691 N   0  0  0  0  0  0  0  0  0  0  0  0
    5.2682    6.5145    0.4894 C   0  0  0  0  0  0  0  0  0  0  0  0
    4.7774    5.1995    0.5121 C   0  0  0  0  0  0  0  0  0  0  0  0
    3.6686    2.4189    0.0356 N   0  0  0  0  0  0  0  0  0  0  0  0
    3.6978    1.1078    0.0395 C   0  0  0  0  0  0  0  0  0  0  0  0
    0.9706   -0.8988    0.0091 H   0  0  0  0  0  0  0  0  0  0  0  0
    1.0869    0.6115   -0.8943 H   0  0  0  0  0  0  0  0  0  0  0  0
    1.0394    0.6304    0.8827 H   0  0  0  0  0  0  0  0  0  0  0  0
    2.3214   -2.8129    0.0099 H   0  0  0  0  0  0  0  0  0  0  0  0
    4.1901   -4.4463   -0.0249 H   0  0  0  0  0  0  0  0  0  0  0  0
    6.5513   -3.7035   -0.0352 H   0  0  0  0  0  0  0  0  0  0  0  0
    7.1134   -1.2636   -0.0192 H   0  0  0  0  0  0  0  0  0  0  0  0
    6.9235    1.5479   -0.0274 H   0  0  0  0  0  0  0  0  0  0  0  0
    7.3053    3.6846   -1.1937 H   0  0  0  0  0  0  0  0  0  0  0  0
    8.1601    5.9788   -1.2315 H   0  0  0  0  0  0  0  0  0  0  0  0
    4.6917    7.3066    0.9640 H   0  0  0  0  0  0  0  0  0  0  0  0
    3.8300    4.9905    1.0058 H   0  0  0  0  0  0  0  0  0  0  0  0
  1  2  1  0  0  0  0
  1 22  1  0  0  0  0
  1 23  1  0  0  0  0
  1 24  1  0  0  0  0
  2  3  1  0  0  0  0
  2 21  1  0  0  0  0
  3  4  1  0  0  0  0
  3  8  2  0  0  0  0
  4  5  2  0  0  0  0
  4 25  1  0  0  0  0
  5  6  1  0  0  0  0
  5 26  1  0  0  0  0
  6  7  2  0  0  0  0
  6 27  1  0  0  0  0
  7  8  1  0  0  0  0
  7 28  1  0  0  0  0
  8  9  1  0  0  0  0
  9 10  1  0  0  0  0
  9 21  1  0  0  0  0
 10 11  2  0  0  0  0
 10 29  1  0  0  0  0
 11 12  1  0  0  0  0
 11 20  1  0  0  0  0
 12 13  1  0  0  0  0
 12 19  2  0  0  0  0
 13 14  2  0  0  0  0
 13 30  1  0  0  0  0
 14 15  1  0  0  0  0
 14 31  1  0  0  0  0
 15 16  1  0  0  0  0
 15 18  2  0  0  0  0
 16 17  3  0  0  0  0
 18 19  1  0  0  0  0
 18 32  1  0  0  0  0
 19 33  1  0  0  0  0
 20 21  2  0  0  0  0
M  END
>  <Energy>
84.3925

$$$$

 OpenBabel04232614443D

 28 30  0  0  0  0  0  0  0  0999 V2000
    1.1380   -0.1760   -0.0612 C   0  0  0  0  0  0  0  0  0  0  0  0
    2.6208   -0.0497   -0.1231 C   0  0  0  0  0  0  0  0  0  0  0  0
    3.3227    1.1049   -0.0251 C   0  0  0  0  0  0  0  0  0  0  0  0
    4.6832    0.7510    0.0090 C   0  0  0  0  0  0  0  0  0  0  0  0
    5.8748    1.2477    0.1718 N   0  0  0  0  0  0  0  0  0  0  0  0
    6.7406    0.1569    0.1676 N   0  0  0  0  0  0  0  0  0  0  0  0
    6.0445   -0.9764    0.0197 C   0  0  0  0  0  0  0  0  0  0  0  0
    6.6250   -2.3206    0.0066 C   0  0  0  0  0  0  0  0  0  0  0  0
    7.9953   -2.4562    0.2904 C   0  0  0  0  0  0  0  0  0  0  0  0
    8.6261   -3.7027    0.2769 C   0  0  0  0  0  0  0  0  0  0  0  0
    7.8977   -4.8588   -0.0206 C   0  0  0  0  0  0  0  0  0  0  0  0
    8.5684   -6.2109   -0.0608 C   0  0  0  0  0  0  0  0  0  0  0  0
    9.9036   -6.1676    0.2077 F   0  0  0  0  0  0  0  0  0  0  0  0
    8.0354   -7.0827    0.8391 F   0  0  0  0  0  0  0  0  0  0  0  0
    8.4527   -6.8120   -1.2773 F   0  0  0  0  0  0  0  0  0  0  0  0
    6.5267   -4.7357   -0.2937 C   0  0  0  0  0  0  0  0  0  0  0  0
    5.8970   -3.4815   -0.2822 C   0  0  0  0  0  0  0  0  0  0  0  0
    4.7325   -0.6068   -0.0959 N   0  0  0  0  0  0  0  0  0  0  0  0
    3.4680   -1.1833   -0.2301 N   0  0  0  0  0  0  0  0  0  0  0  0
    0.6576    0.8073   -0.0205 H   0  0  0  0  0  0  0  0  0  0  0  0
    0.8412   -0.7307    0.8343 H   0  0  0  0  0  0  0  0  0  0  0  0
    0.7549   -0.7004   -0.9417 H   0  0  0  0  0  0  0  0  0  0  0  0
    2.9397    2.1077    0.0917 H   0  0  0  0  0  0  0  0  0  0  0  0
    8.5935   -1.5729    0.5187 H   0  0  0  0  0  0  0  0  0  0  0  0
    9.6926   -3.7580    0.4919 H   0  0  0  0  0  0  0  0  0  0  0  0
    5.9408   -5.6236   -0.5319 H   0  0  0  0  0  0  0  0  0  0  0  0
    4.8394   -3.4404   -0.5248 H   0  0  0  0  0  0  0  0  0  0  0  0
    3.2671   -1.8589    0.5035 H   0  0  0  0  0  0  0  0  0  0  0  0
  1  2  1  0  0  0  0
  1 20  1  0  0  0  0
  1 21  1  0  0  0  0
  1 22  1  0  0  0  0
  2  3  2  0  0  0  0
  2 19  1  0  0  0  0
  3  4  1  0  0  0  0
  3 23  1  0  0  0  0
  4  5  2  0  0  0  0
  4 18  1  0  0  0  0
  5  6  1  0  0  0  0
  6  7  2  0  0  0  0
  7  8  1  0  0  0  0
  7 18  1  0  0  0  0
  8  9  1  0  0  0  0
  8 17  2  0  0  0  0
  9 10  2  0  0  0  0
  9 24  1  0  0  0  0
 10 11  1  0  0  0  0
 10 25  1  0  0  0  0
 11 12  1  0  0  0  0
 11 16  2  0  0  0  0
 12 13  1  0  0  0  0
 12 14  1  0  0  0  0
 12 15  1  0  0  0  0
 16 17  1  0  0  0  0
 16 26  1  0  0  0  0
 17 27  1  0  0  0  0
 18 19  1  0  0  0  0
 19 28  1  0  0  0  0
M  END
>  <Energy>
106.417

$$$$

 OpenBabel04232614443D

 32 34  0  0  0  0  0  0  0  0999 V2000
    1.6651   -1.3134   -0.4211 C   0  0  0  0  0  0  0  0  0  0  0  0
    2.8588   -0.0077   -0.0629 S   0  0  0  0  0  0  0  0  0  0  0  0
    3.3166   -0.4266    1.5843 C   0  0  0  0  0  0  0  0  0  0  0  0
    3.2359   -1.6736    1.9359 N   0  0  0  0  0  0  0  0  0  0  0  0
    3.6298   -1.9712    3.2054 C   0  0  0  0  0  0  0  0  0  0  0  0
    3.6956   -3.1729    3.8663 C   0  0  0  0  0  0  0  0  0  0  0  0
    4.1895   -2.8669    5.1462 C   0  0  0  0  0  0  0  0  0  0  0  0
    4.4596   -3.8104    6.2583 C   0  0  0  0  0  0  0  0  0  0  0  0
    4.4194   -1.5582    5.2944 N   0  0  0  0  0  0  0  0  0  0  0  0
    4.0904   -0.9973    4.0988 N   0  0  0  0  0  0  0  0  0  0  0  0
    4.1705    0.3505    3.7061 C   0  0  0  0  0  0  0  0  0  0  0  0
    4.6855    1.3765    4.6365 C   0  0  0  0  0  0  0  0  0  0  0  0
    3.8134    2.0975    5.4631 C   0  0  0  0  0  0  0  0  0  0  0  0
    4.2976    3.1475    6.2471 C   0  0  0  0  0  0  0  0  0  0  0  0
    5.6511    3.4807    6.2123 C   0  0  0  0  0  0  0  0  0  0  0  0
    6.5271    2.7560    5.4063 C   0  0  0  0  0  0  0  0  0  0  0  0
    6.0480    1.7056    4.6221 C   0  0  0  0  0  0  0  0  0  0  0  0
    3.7950    0.7023    2.4522 C   0  0  0  0  0  0  0  0  0  0  0  0
    3.8428    2.0419    1.9729 C   0  0  0  0  0  0  0  0  0  0  0  0
    3.8787    3.1369    1.5939 N   0  0  0  0  0  0  0  0  0  0  0  0
    1.2734   -1.1703   -1.4317 H   0  0  0  0  0  0  0  0  0  0  0  0
    0.8299   -1.2672    0.2831 H   0  0  0  0  0  0  0  0  0  0  0  0
    2.1310   -2.3013   -0.3739 H   0  0  0  0  0  0  0  0  0  0  0  0
    3.4272   -4.1393    3.4642 H   0  0  0  0  0  0  0  0  0  0  0  0
    4.2338   -4.8405    5.9622 H   0  0  0  0  0  0  0  0  0  0  0  0
    3.8433   -3.5674    7.1293 H   0  0  0  0  0  0  0  0  0  0  0  0
    5.5133   -3.7688    6.5518 H   0  0  0  0  0  0  0  0  0  0  0  0
    2.7519    1.8629    5.4948 H   0  0  0  0  0  0  0  0  0  0  0  0
    3.6172    3.7157    6.8768 H   0  0  0  0  0  0  0  0  0  0  0  0
    6.0235    4.3085    6.8108 H   0  0  0  0  0  0  0  0  0  0  0  0
    7.5819    3.0172    5.3786 H   0  0  0  0  0  0  0  0  0  0  0  0
    6.7450    1.1607    3.9893 H   0  0  0  0  0  0  0  0  0  0  0  0
  1  2  1  0  0  0  0
  1 21  1  0  0  0  0
  1 22  1  0  0  0  0
  1 23  1  0  0  0  0
  2  3  1  0  0  0  0
  3  4  2  0  0  0  0
  3 18  1  0  0  0  0
  4  5  1  0  0  0  0
  5  6  2  0  0  0  0
  5 10  1  0  0  0  0
  6  7  1  0  0  0  0
  6 24  1  0  0  0  0
  7  8  1  0  0  0  0
  7  9  2  0  0  0  0
  8 25  1  0  0  0  0
  8 26  1  0  0  0  0
  8 27  1  0  0  0  0
  9 10  1  0  0  0  0
 10 11  1  0  0  0  0
 11 12  1  0  0  0  0
 11 18  2  0  0  0  0
 12 13  1  0  0  0  0
 12 17  2  0  0  0  0
 13 14  2  0  0  0  0
 13 28  1  0  0  0  0
 14 15  1  0  0  0  0
 14 29  1  0  0  0  0
 15 16  2  0  0  0  0
 15 30  1  0  0  0  0
 16 17  1  0  0  0  0
 16 31  1  0  0  0  0
 17 32  1  0  0  0  0
 18 19  1  0  0  0  0
 19 20  3  0  0  0  0
M  END
>  <Energy>
51.369

$$$$

 OpenBabel04232614443D

 25 27  0  0  0  0  0  0  0  0999 V2000
    1.0335   -0.0333    0.0625 O   0  0  0  0  0  0  0  0  0  0  0  0
    2.2570   -0.0592    0.0636 C   0  0  0  0  0  0  0  0  0  0  0  0
    3.0094    1.1069    0.0653 O   0  0  0  0  0  0  0  0  0  0  0  0
    4.4196    1.1221    0.0670 C   0  0  0  0  0  0  0  0  0  0  0  0
    5.0371    2.3736    0.0688 C   0  0  0  0  0  0  0  0  0  0  0  0
    4.3020    3.4946    0.0691 F   0  0  0  0  0  0  0  0  0  0  0  0
    6.4198    2.4530    0.0706 C   0  0  0  0  0  0  0  0  0  0  0  0
    7.0334    3.6436    0.0723 F   0  0  0  0  0  0  0  0  0  0  0  0
    7.1853    1.2949    0.0706 C   0  0  0  0  0  0  0  0  0  0  0  0
    6.5550    0.0442    0.0688 C   0  0  0  0  0  0  0  0  0  0  0  0
    5.1515   -0.0701    0.0670 C   0  0  0  0  0  0  0  0  0  0  0  0
    4.4248   -1.3468    0.0656 C   0  0  0  0  0  0  0  0  0  0  0  0
    5.0743   -2.6002    0.0669 C   0  0  0  0  0  0  0  0  0  0  0  0
    4.3377   -3.7814    0.0665 C   0  0  0  0  0  0  0  0  0  0  0  0
    4.9413   -5.0080    0.0695 O   0  0  0  0  0  0  0  0  0  0  0  0
    2.9507   -3.7438    0.0635 C   0  0  0  0  0  0  0  0  0  0  0  0
    2.2351   -4.9047    0.0624 O   0  0  0  0  0  0  0  0  0  0  0  0
    2.2794   -2.5334    0.0621 C   0  0  0  0  0  0  0  0  0  0  0  0
    3.0149   -1.3366    0.0635 C   0  0  0  0  0  0  0  0  0  0  0  0
    8.2692    1.3672    0.0722 H   0  0  0  0  0  0  0  0  0  0  0  0
    7.1979   -0.8315    0.0690 H   0  0  0  0  0  0  0  0  0  0  0  0
    6.1562   -2.6670    0.0683 H   0  0  0  0  0  0  0  0  0  0  0  0
    5.9065   -4.8863    0.0783 H   0  0  0  0  0  0  0  0  0  0  0  0
    2.9046   -5.6177    0.0628 H   0  0  0  0  0  0  0  0  0  0  0  0
    1.1917   -2.5229    0.0602 H   0  0  0  0  0  0  0  0  0  0  0  0
  1  2  2  0  0  0  0
  2  3  1  0  0  0  0
  2 19  1  0  0  0  0
  3  4  1  0  0  0  0
  4  5  1  0  0  0  0
  4 11  2  0  0  0  0
  5  6  1  0  0  0  0
  5  7  2  0  0  0  0
  7  8  1  0  0  0  0
  7  9  1  0  0  0  0
  9 10  2  0  0  0  0
  9 20  1  0  0  0  0
 10 11  1  0  0  0  0
 10 21  1  0  0  0  0
 11 12  1  0  0  0  0
 12 13  1  0  0  0  0
 12 19  2  0  0  0  0
 13 14  2  0  0  0  0
 13 22  1  0  0  0  0
 14 15  1  0  0  0  0
 14 16  1  0  0  0  0
 15 23  1  0  0  0  0
 16 17  1  0  0  0  0
 16 18  2  0  0  0  0
 17 24  1  0  0  0  0
 18 19  1  0  0  0  0
 18 25  1  0  0  0  0
M  END
>  <Energy>
57.1712

$$$$

 OpenBabel04232614443D

 26 28  0  0  0  0  0  0  0  0999 V2000
    3.1493   -1.0573    0.4616 F   0  0  0  0  0  0  0  0  0  0  0  0
    2.3344   -0.0910   -0.0447 C   0  0  0  0  0  0  0  0  0  0  0  0
    2.2970   -0.2988   -1.3895 F   0  0  0  0  0  0  0  0  0  0  0  0
    1.0855   -0.3757    0.4142 F   0  0  0  0  0  0  0  0  0  0  0  0
    2.7709    1.3136    0.3064 C   0  0  0  0  0  0  0  0  0  0  0  0
    3.9177    1.5320    1.0799 C   0  0  0  0  0  0  0  0  0  0  0  0
    4.2691    2.8588    1.3498 C   0  0  0  0  0  0  0  0  0  0  0  0
    5.3186    3.3712    2.0665 N   0  0  0  0  0  0  0  0  0  0  0  0
    5.3583    4.7114    2.0925 N   0  0  0  0  0  0  0  0  0  0  0  0
    4.2963    5.0655    1.3690 C   0  0  0  0  0  0  0  0  0  0  0  0
    3.5442    3.9568    0.8923 C   0  0  0  0  0  0  0  0  0  0  0  0
    2.3664    3.7540    0.1256 C   0  0  0  0  0  0  0  0  0  0  0  0
    1.5545    4.8797   -0.3670 C   0  0  0  0  0  0  0  0  0  0  0  0
    0.9070    4.8687   -1.5947 C   0  0  0  0  0  0  0  0  0  0  0  0
    0.1366    5.8691   -2.0806 N   0  0  0  0  0  0  0  0  0  0  0  0
    0.0164    6.9427   -1.2908 C   0  0  0  0  0  0  0  0  0  0  0  0
    0.5764    7.0889   -0.0843 N   0  0  0  0  0  0  0  0  0  0  0  0
    1.3211    6.0450    0.3490 C   0  0  0  0  0  0  0  0  0  0  0  0
    2.0155    2.4080   -0.1493 C   0  0  0  0  0  0  0  0  0  0  0  0
    4.5171    0.7049    1.4493 H   0  0  0  0  0  0  0  0  0  0  0  0
    6.0466    2.8603    2.5546 H   0  0  0  0  0  0  0  0  0  0  0  0
    4.1125    6.1216    1.2207 H   0  0  0  0  0  0  0  0  0  0  0  0
    0.9850    4.0190   -2.2693 H   0  0  0  0  0  0  0  0  0  0  0  0
   -0.5885    7.7643   -1.6590 H   0  0  0  0  0  0  0  0  0  0  0  0
    1.7228    6.1902    1.3474 H   0  0  0  0  0  0  0  0  0  0  0  0
    1.1150    2.1966   -0.7283 H   0  0  0  0  0  0  0  0  0  0  0  0
  1  2  1  0  0  0  0
  2  3  1  0  0  0  0
  2  4  1  0  0  0  0
  2  5  1  0  0  0  0
  5  6  1  0  0  0  0
  5 19  2  0  0  0  0
  6  7  2  0  0  0  0
  6 20  1  0  0  0  0
  7  8  1  0  0  0  0
  7 11  1  0  0  0  0
  8  9  1  0  0  0  0
  8 21  1  0  0  0  0
  9 10  2  0  0  0  0
 10 11  1  0  0  0  0
 10 22  1  0  0  0  0
 11 12  2  0  0  0  0
 12 13  1  0  0  0  0
 12 19  1  0  0  0  0
 13 14  1  0  0  0  0
 13 18  2  0  0  0  0
 14 15  2  0  0  0  0
 14 23  1  0  0  0  0
 15 16  1  0  0  0  0
 16 17  2  0  0  0  0
 16 24  1  0  0  0  0
 17 18  1  0  0  0  0
 18 25  1  0  0  0  0
 19 26  1  0  0  0  0
M  END
>  <Energy>
67.3674

$$$$

 OpenBabel04232614443D

 28 29  0  0  0  0  0  0  0  0999 V2000
    0.8852   -0.0126    0.0927 C   0  0  0  0  0  0  0  0  0  0  0  0
    2.4126   -0.0581    0.1229 C   0  0  0  0  0  0  0  0  0  0  0  0
    3.0329    0.9803   -0.7947 C   0  0  0  0  0  0  0  0  0  0  0  0
    2.9786    0.5932   -2.2573 C   0  0  0  0  0  0  0  0  0  0  0  0
    2.6416    1.4355   -3.0913 O   0  0  0  0  0  0  0  0  0  0  0  0
    3.3514   -0.7218   -2.5384 N   0  0  0  0  0  0  0  0  0  0  0  0
    3.9807   -1.0280   -3.8060 C   0  0  0  0  0  0  0  0  0  0  0  0
    4.6672   -0.0199   -4.5155 C   0  0  0  0  0  0  0  0  0  0  0  0
    5.4213   -0.3007   -5.6614 C   0  0  0  0  0  0  0  0  0  0  0  0
    5.5043   -1.6040   -6.1296 C   0  0  0  0  0  0  0  0  0  0  0  0
    6.5591   -1.9974   -7.6455 Br  0  0  0  0  0  0  0  0  0  0  0  0
    4.8312   -2.6212   -5.4662 C   0  0  0  0  0  0  0  0  0  0  0  0
    4.0858   -2.3352   -4.3123 C   0  0  0  0  0  0  0  0  0  0  0  0
    2.8320   -1.7247   -1.7215 C   0  0  0  0  0  0  0  0  0  0  0  0
    2.3268   -2.7840   -2.0845 O   0  0  0  0  0  0  0  0  0  0  0  0
    2.9466   -1.4320   -0.2384 C   0  0  0  0  0  0  0  0  0  0  0  0
    0.5248    0.9771    0.3939 H   0  0  0  0  0  0  0  0  0  0  0  0
    0.4670   -0.7430    0.7941 H   0  0  0  0  0  0  0  0  0  0  0  0
    0.4855   -0.2305   -0.9022 H   0  0  0  0  0  0  0  0  0  0  0  0
    2.7191    0.1694    1.1522 H   0  0  0  0  0  0  0  0  0  0  0  0
    4.0921    1.1218   -0.5465 H   0  0  0  0  0  0  0  0  0  0  0  0
    2.5402    1.9511   -0.6657 H   0  0  0  0  0  0  0  0  0  0  0  0
    4.6715    1.0130   -4.1741 H   0  0  0  0  0  0  0  0  0  0  0  0
    5.9508    0.5062   -6.1615 H   0  0  0  0  0  0  0  0  0  0  0  0
    4.8865   -3.6472   -5.8221 H   0  0  0  0  0  0  0  0  0  0  0  0
    3.6006   -3.1823   -3.8368 H   0  0  0  0  0  0  0  0  0  0  0  0
    4.0091   -1.5095    0.0220 H   0  0  0  0  0  0  0  0  0  0  0  0
    2.4209   -2.2129    0.3224 H   0  0  0  0  0  0  0  0  0  0  0  0
  1  2  1  0  0  0  0
  1 17  1  0  0  0  0
  1 18  1  0  0  0  0
  1 19  1  0  0  0  0
  2  3  1  0  0  0  0
  2 16  1  0  0  0  0
  2 20  1  0  0  0  0
  3  4  1  0  0  0  0
  3 21  1  0  0  0  0
  3 22  1  0  0  0  0
  4  5  2  0  0  0  0
  4  6  1  0  0  0  0
  6  7  1  0  0  0  0
  6 14  1  0  0  0  0
  7  8  1  0  0  0  0
  7 13  2  0  0  0  0
  8  9  2  0  0  0  0
  8 23  1  0  0  0  0
  9 10  1  0  0  0  0
  9 24  1  0  0  0  0
 10 11  1  0  0  0  0
 10 12  2  0  0  0  0
 12 13  1  0  0  0  0
 12 25  1  0  0  0  0
 13 26  1  0  0  0  0
 14 15  2  0  0  0  0
 14 16  1  0  0  0  0
 16 27  1  0  0  0  0
 16 28  1  0  0  0  0
M  END
>  <Energy>
23.7008

$$$$

 OpenBabel04232614443D

 31 34  0  0  0  0  0  0  0  0999 V2000
    1.0762    1.0101    0.0941 O   0  0  0  0  0  0  0  0  0  0  0  0
    2.2768    0.7681    0.0108 C   0  0  0  0  0  0  0  0  0  0  0  0
    2.7327   -0.6528   -0.0180 C   0  0  0  0  0  0  0  0  0  0  0  0
    4.0496   -0.9363   -0.0152 C   0  0  0  0  0  0  0  0  0  0  0  0
    4.5687   -2.3401   -0.0538 C   0  0  0  0  0  0  0  0  0  0  0  0
    3.8138   -3.4365    0.3980 C   0  0  0  0  0  0  0  0  0  0  0  0
    4.3446   -4.7354    0.3939 C   0  0  0  0  0  0  0  0  0  0  0  0
    5.6432   -4.9688   -0.0506 C   0  0  0  0  0  0  0  0  0  0  0  0
    6.4129   -3.9041   -0.5004 C   0  0  0  0  0  0  0  0  0  0  0  0
    5.8765   -2.6178   -0.5018 C   0  0  0  0  0  0  0  0  0  0  0  0
    6.6728   -1.6251   -0.9372 F   0  0  0  0  0  0  0  0  0  0  0  0
    4.9928    0.0714    0.0101 N   0  0  0  0  0  0  0  0  0  0  0  0
    4.6576    1.4227   -0.1404 C   0  0  0  0  0  0  0  0  0  0  0  0
    5.6806    2.3827   -0.2733 C   0  0  0  0  0  0  0  0  0  0  0  0
    5.3733    3.7385   -0.3761 C   0  0  0  0  0  0  0  0  0  0  0  0
    4.0445    4.1004   -0.3063 C   0  0  0  0  0  0  0  0  0  0  0  0
    3.0289    3.1771   -0.1646 C   0  0  0  0  0  0  0  0  0  0  0  0
    3.3117    1.8252   -0.0924 C   0  0  0  0  0  0  0  0  0  0  0  0
    1.8118    3.7844   -0.1139 O   0  0  0  0  0  0  0  0  0  0  0  0
    2.1788    5.1751   -0.1629 C   0  0  0  0  0  0  0  0  0  0  0  0
    3.5899    5.3818   -0.3635 O   0  0  0  0  0  0  0  0  0  0  0  0
    1.9410   -1.3884   -0.0518 H   0  0  0  0  0  0  0  0  0  0  0  0
    2.8047   -3.3050    0.7809 H   0  0  0  0  0  0  0  0  0  0  0  0
    3.7401   -5.5670    0.7513 H   0  0  0  0  0  0  0  0  0  0  0  0
    6.0566   -5.9741   -0.0409 H   0  0  0  0  0  0  0  0  0  0  0  0
    7.4309   -4.0580   -0.8448 H   0  0  0  0  0  0  0  0  0  0  0  0
    5.9538   -0.1910   -0.1920 H   0  0  0  0  0  0  0  0  0  0  0  0
    6.7219    2.0700   -0.3038 H   0  0  0  0  0  0  0  0  0  0  0  0
    6.1519    4.4837   -0.4957 H   0  0  0  0  0  0  0  0  0  0  0  0
    1.8899    5.6504    0.7822 H   0  0  0  0  0  0  0  0  0  0  0  0
    1.6330    5.6579   -0.9807 H   0  0  0  0  0  0  0  0  0  0  0  0
  1  2  2  0  0  0  0
  2  3  1  0  0  0  0
  2 18  1  0  0  0  0
  3  4  2  0  0  0  0
  3 22  1  0  0  0  0
  4  5  1  0  0  0  0
  4 12  1  0  0  0  0
  5  6  1  0  0  0  0
  5 10  2  0  0  0  0
  6  7  2  0  0  0  0
  6 23  1  0  0  0  0
  7  8  1  0  0  0  0
  7 24  1  0  0  0  0
  8  9  2  0  0  0  0
  8 25  1  0  0  0  0
  9 10  1  0  0  0  0
  9 26  1  0  0  0  0
 10 11  1  0  0  0  0
 12 13  1  0  0  0  0
 12 27  1  0  0  0  0
 13 14  1  0  0  0  0
 13 18  2  0  0  0  0
 14 15  2  0  0  0  0
 14 28  1  0  0  0  0
 15 16  1  0  0  0  0
 15 29  1  0  0  0  0
 16 17  2  0  0  0  0
 16 21  1  0  0  0  0
 17 18  1  0  0  0  0
 17 19  1  0  0  0  0
 19 20  1  0  0  0  0
 20 21  1  0  0  0  0
 20 30  1  0  0  0  0
 20 31  1  0  0  0  0
M  END
>  <Energy>
61.7997

$$$$

 OpenBabel04232614443D

 35 37  0  0  0  0  0  0  0  0999 V2000
   -1.9919   -0.1525   -0.0272 C   0  0  0  0  0  0  0  0  0  0  0  0
   -0.5261   -0.1243   -0.1657 C   0  0  0  0  0  0  0  0  0  0  0  0
    0.3293   -1.0921   -0.4233 N   0  0  0  0  0  0  0  0  0  0  0  0
    1.5895   -0.5218   -0.3824 N   0  0  0  0  0  0  0  0  0  0  0  0
    1.4096    0.7522   -0.1083 C   0  0  0  0  0  0  0  0  0  0  0  0
    2.3816    1.8395    0.1967 C   0  0  0  0  0  0  0  0  0  0  0  0
    3.5327    1.9362   -0.8172 C   0  0  0  0  0  0  0  0  0  0  0  0
    4.7374    1.0321   -0.5185 C   0  0  0  0  0  0  0  0  0  0  0  0
    5.0728    1.1214    0.9005 N   0  0  0  0  0  0  0  0  0  0  0  0
    6.2900    1.5782    1.3720 C   0  0  0  0  0  0  0  0  0  0  0  0
    6.4095    2.2217    2.6188 C   0  0  0  0  0  0  0  0  0  0  0  0
    7.6421    2.6654    3.1153 C   0  0  0  0  0  0  0  0  0  0  0  0
    8.7865    2.4729    2.3642 C   0  0  0  0  0  0  0  0  0  0  0  0
    9.9695    2.8872    2.8355 F   0  0  0  0  0  0  0  0  0  0  0  0
    8.7181    1.8491    1.1286 C   0  0  0  0  0  0  0  0  0  0  0  0
    7.4808    1.4082    0.6441 C   0  0  0  0  0  0  0  0  0  0  0  0
    3.9941    0.7226    1.8002 C   0  0  0  0  0  0  0  0  0  0  0  0
    2.8561    1.7248    1.6528 C   0  0  0  0  0  0  0  0  0  0  0  0
    0.0860    1.0802    0.0321 O   0  0  0  0  0  0  0  0  0  0  0  0
   -2.3664   -1.1797   -0.0249 H   0  0  0  0  0  0  0  0  0  0  0  0
   -2.4654    0.3882   -0.8516 H   0  0  0  0  0  0  0  0  0  0  0  0
   -2.2950    0.3211    0.9126 H   0  0  0  0  0  0  0  0  0  0  0  0
    1.8161    2.7787    0.1141 H   0  0  0  0  0  0  0  0  0  0  0  0
    3.8920    2.9747   -0.8060 H   0  0  0  0  0  0  0  0  0  0  0  0
    3.1768    1.7468   -1.8376 H   0  0  0  0  0  0  0  0  0  0  0  0
    5.5552    1.3516   -1.1742 H   0  0  0  0  0  0  0  0  0  0  0  0
    4.5092   -0.0069   -0.7783 H   0  0  0  0  0  0  0  0  0  0  0  0
    5.5301    2.4146    3.2268 H   0  0  0  0  0  0  0  0  0  0  0  0
    7.7049    3.1583    4.0805 H   0  0  0  0  0  0  0  0  0  0  0  0
    9.6241    1.6931    0.5535 H   0  0  0  0  0  0  0  0  0  0  0  0
    7.4715    0.8881   -0.3104 H   0  0  0  0  0  0  0  0  0  0  0  0
    4.3065    0.6499    2.8469 H   0  0  0  0  0  0  0  0  0  0  0  0
    3.6567   -0.2859    1.5289 H   0  0  0  0  0  0  0  0  0  0  0  0
    3.2022    2.7118    1.9866 H   0  0  0  0  0  0  0  0  0  0  0  0
    2.0288    1.4387    2.3140 H   0  0  0  0  0  0  0  0  0  0  0  0
  1  2  1  0  0  0  0
  1 20  1  0  0  0  0
  1 21  1  0  0  0  0
  1 22  1  0  0  0  0
  2  3  2  0  0  0  0
  2 19  1  0  0  0  0
  3  4  1  0  0  0  0
  4  5  2  0  0  0  0
  5  6  1  0  0  0  0
  5 19  1  0  0  0  0
  6  7  1  0  0  0  0
  6 18  1  0  0  0  0
  6 23  1  0  0  0  0
  7  8  1  0  0  0  0
  7 24  1  0  0  0  0
  7 25  1  0  0  0  0
  8  9  1  0  0  0  0
  8 26  1  0  0  0  0
  8 27  1  0  0  0  0
  9 10  1  0  0  0  0
  9 17  1  0  0  0  0
 10 11  1  0  0  0  0
 10 16  2  0  0  0  0
 11 12  2  0  0  0  0
 11 28  1  0  0  0  0
 12 13  1  0  0  0  0
 12 29  1  0  0  0  0
 13 14  1  0  0  0  0
 13 15  2  0  0  0  0
 15 16  1  0  0  0  0
 15 30  1  0  0  0  0
 16 31  1  0  0  0  0
 17 18  1  0  0  0  0
 17 32  1  0  0  0  0
 17 33  1  0  0  0  0
 18 34  1  0  0  0  0
 18 35  1  0  0  0  0
M  END
>  <Energy>
7.88817

$$$$

 OpenBabel04232614443D

 30 32  0  0  0  0  0  0  0  0999 V2000
    0.9944    0.3018    0.7859 C   0  0  0  0  0  0  0  0  0  0  0  0
    2.6601   -0.0167    0.1800 S   0  0  0  0  0  0  0  0  0  0  0  0
    3.2933    1.6165   -0.0370 C   0  0  0  0  0  0  0  0  0  0  0  0
    2.4860    2.6036    0.1915 N   0  0  0  0  0  0  0  0  0  0  0  0
    2.9679    3.9083    0.0710 C   0  0  0  0  0  0  0  0  0  0  0  0
    2.0836    4.9736    0.2637 C   0  0  0  0  0  0  0  0  0  0  0  0
    2.5183    6.2949    0.1274 C   0  0  0  0  0  0  0  0  0  0  0  0
    3.8464    6.5626   -0.2008 C   0  0  0  0  0  0  0  0  0  0  0  0
    4.7415    5.5083   -0.3778 C   0  0  0  0  0  0  0  0  0  0  0  0
    4.2962    4.1876   -0.2345 C   0  0  0  0  0  0  0  0  0  0  0  0
    5.2124    3.0504   -0.4237 C   0  0  0  0  0  0  0  0  0  0  0  0
    6.4022    3.2868   -0.6280 O   0  0  0  0  0  0  0  0  0  0  0  0
    4.6372    1.7758   -0.3853 N   0  0  0  0  0  0  0  0  0  0  0  0
    5.4936    0.6703   -0.6775 C   0  0  0  0  0  0  0  0  0  0  0  0
    5.2213   -0.2005   -1.7359 C   0  0  0  0  0  0  0  0  0  0  0  0
    6.0620   -1.2854   -1.9713 C   0  0  0  0  0  0  0  0  0  0  0  0
    7.1561   -1.4622   -1.1382 C   0  0  0  0  0  0  0  0  0  0  0  0
    7.4714   -0.6272   -0.1263 N   0  0  0  0  0  0  0  0  0  0  0  0
    6.6454    0.4302    0.0698 C   0  0  0  0  0  0  0  0  0  0  0  0
    0.4748   -0.6536    0.9026 H   0  0  0  0  0  0  0  0  0  0  0  0
    0.4269    0.9111    0.0778 H   0  0  0  0  0  0  0  0  0  0  0  0
    1.0252    0.7959    1.7605 H   0  0  0  0  0  0  0  0  0  0  0  0
    1.0463    4.7701    0.5180 H   0  0  0  0  0  0  0  0  0  0  0  0
    1.8179    7.1139    0.2739 H   0  0  0  0  0  0  0  0  0  0  0  0
    4.1839    7.5897   -0.3181 H   0  0  0  0  0  0  0  0  0  0  0  0
    5.7782    5.7154   -0.6355 H   0  0  0  0  0  0  0  0  0  0  0  0
    4.3674   -0.0381   -2.3886 H   0  0  0  0  0  0  0  0  0  0  0  0
    5.8679   -1.9779   -2.7833 H   0  0  0  0  0  0  0  0  0  0  0  0
    7.8304   -2.3033   -1.2721 H   0  0  0  0  0  0  0  0  0  0  0  0
    6.9314    1.0779    0.8935 H   0  0  0  0  0  0  0  0  0  0  0  0
  1  2  1  0  0  0  0
  1 20  1  0  0  0  0
  1 21  1  0  0  0  0
  1 22  1  0  0  0  0
  2  3  1  0  0  0  0
  3  4  2  0  0  0  0
  3 13  1  0  0  0  0
  4  5  1  0  0  0  0
  5  6  1  0  0  0  0
  5 10  2  0  0  0  0
  6  7  2  0  0  0  0
  6 23  1  0  0  0  0
  7  8  1  0  0  0  0
  7 24  1  0  0  0  0
  8  9  2  0  0  0  0
  8 25  1  0  0  0  0
  9 10  1  0  0  0  0
  9 26  1  0  0  0  0
 10 11  1  0  0  0  0
 11 12  2  0  0  0  0
 11 13  1  0  0  0  0
 13 14  1  0  0  0  0
 14 15  1  0  0  0  0
 14 19  2  0  0  0  0
 15 16  2  0  0  0  0
 15 27  1  0  0  0  0
 16 17  1  0  0  0  0
 16 28  1  0  0  0  0
 17 18  2  0  0  0  0
 17 29  1  0  0  0  0
 18 19  1  0  0  0  0
 19 30  1  0  0  0  0
M  END
>  <Energy>
33.8212

$$$$

 OpenBabel04232614443D

 36 39  0  0  0  0  0  0  0  0999 V2000
    1.1964    0.1244    0.1649 C   0  0  0  0  0  0  0  0  0  0  0  0
    2.6310   -0.0058   -0.0422 N   0  0  0  0  0  0  0  0  0  0  0  0
    3.2517   -1.2273   -0.3079 C   0  0  0  0  0  0  0  0  0  0  0  0
    4.6016   -1.3470   -0.3068 C   0  0  0  0  0  0  0  0  0  0  0  0
    5.4361   -0.1826    0.0519 C   0  0  0  0  0  0  0  0  0  0  0  0
    6.8139   -0.2698    0.3112 C   0  0  0  0  0  0  0  0  0  0  0  0
    7.5720    0.8710    0.5935 C   0  0  0  0  0  0  0  0  0  0  0  0
    6.9688    2.1235    0.6135 C   0  0  0  0  0  0  0  0  0  0  0  0
    5.5969    2.2277    0.4019 C   0  0  0  0  0  0  0  0  0  0  0  0
    4.8331    1.0765    0.1520 C   0  0  0  0  0  0  0  0  0  0  0  0
    3.3574    1.1844    0.0897 C   0  0  0  0  0  0  0  0  0  0  0  0
    2.8288    2.2931    0.2056 O   0  0  0  0  0  0  0  0  0  0  0  0
    5.2533   -2.6714   -0.6450 C   0  0  0  0  0  0  0  0  0  0  0  0
    5.0284   -3.6964    0.4735 C   0  0  0  0  0  0  0  0  0  0  0  0
    3.6929   -3.7728    1.0058 O   0  0  0  0  0  0  0  0  0  0  0  0
    2.7265   -3.6743    0.0377 C   0  0  0  0  0  0  0  0  0  0  0  0
    2.0036   -4.8309   -0.2533 C   0  0  0  0  0  0  0  0  0  0  0  0
    1.0342   -4.8039   -1.2524 C   0  0  0  0  0  0  0  0  0  0  0  0
    0.7882   -3.6218   -1.9513 C   0  0  0  0  0  0  0  0  0  0  0  0
    1.5011   -2.4582   -1.6433 C   0  0  0  0  0  0  0  0  0  0  0  0
    2.4619   -2.4549   -0.6200 C   0  0  0  0  0  0  0  0  0  0  0  0
    0.6864   -0.8317    0.2902 H   0  0  0  0  0  0  0  0  0  0  0  0
    0.7638    0.6772   -0.6747 H   0  0  0  0  0  0  0  0  0  0  0  0
    1.0222    0.7023    1.0811 H   0  0  0  0  0  0  0  0  0  0  0  0
    7.3310   -1.2238    0.3251 H   0  0  0  0  0  0  0  0  0  0  0  0
    8.6353    0.7765    0.8002 H   0  0  0  0  0  0  0  0  0  0  0  0
    7.5582    3.0127    0.8207 H   0  0  0  0  0  0  0  0  0  0  0  0
    5.1161    3.2021    0.4556 H   0  0  0  0  0  0  0  0  0  0  0  0
    6.3206   -2.5907   -0.8691 H   0  0  0  0  0  0  0  0  0  0  0  0
    4.8300   -3.0490   -1.5870 H   0  0  0  0  0  0  0  0  0  0  0  0
    5.6814   -3.4504    1.3192 H   0  0  0  0  0  0  0  0  0  0  0  0
    5.3210   -4.6955    0.1290 H   0  0  0  0  0  0  0  0  0  0  0  0
    2.2110   -5.7513    0.2849 H   0  0  0  0  0  0  0  0  0  0  0  0
    0.4780   -5.7065   -1.4932 H   0  0  0  0  0  0  0  0  0  0  0  0
    0.0405   -3.6064   -2.7410 H   0  0  0  0  0  0  0  0  0  0  0  0
    1.3036   -1.5524   -2.2126 H   0  0  0  0  0  0  0  0  0  0  0  0
  1  2  1  0  0  0  0
  1 22  1  0  0  0  0
  1 23  1  0  0  0  0
  1 24  1  0  0  0  0
  2  3  1  0  0  0  0
  2 11  1  0  0  0  0
  3  4  2  0  0  0  0
  3 21  1  0  0  0  0
  4  5  1  0  0  0  0
  4 13  1  0  0  0  0
  5  6  1  0  0  0  0
  5 10  2  0  0  0  0
  6  7  2  0  0  0  0
  6 25  1  0  0  0  0
  7  8  1  0  0  0  0
  7 26  1  0  0  0  0
  8  9  2  0  0  0  0
  8 27  1  0  0  0  0
  9 10  1  0  0  0  0
  9 28  1  0  0  0  0
 10 11  1  0  0  0  0
 11 12  2  0  0  0  0
 13 14  1  0  0  0  0
 13 29  1  0  0  0  0
 13 30  1  0  0  0  0
 14 15  1  0  0  0  0
 14 31  1  0  0  0  0
 14 32  1  0  0  0  0
 15 16  1  0  0  0  0
 16 17  1  0  0  0  0
 16 21  2  0  0  0  0
 17 18  2  0  0  0  0
 17 33  1  0  0  0  0
 18 19  1  0  0  0  0
 18 34  1  0  0  0  0
 19 20  2  0  0  0  0
 19 35  1  0  0  0  0
 20 21  1  0  0  0  0
 20 36  1  0  0  0  0
M  END
>  <Energy>
85.9159

$$$$

 OpenBabel04232614443D

 26 27  0  0  0  0  0  0  0  0999 V2000
    3.1823    1.3567   -1.1937 C   0  0  0  0  0  0  0  0  0  0  0  0
    1.9197    0.0723   -1.3529 S   0  0  0  0  0  0  0  0  0  0  0  0
    2.9299   -1.3304   -1.5138 C   0  0  0  0  0  0  0  0  0  0  0  0
    4.2440   -1.3052   -1.5891 N   0  0  0  0  0  0  0  0  0  0  0  0
    4.6594   -2.6118   -1.6914 N   0  0  0  0  0  0  0  0  0  0  0  0
    3.5744   -3.3587   -1.6736 C   0  0  0  0  0  0  0  0  0  0  0  0
    3.4215   -4.8081   -1.7479 C   0  0  0  0  0  0  0  0  0  0  0  0
    2.1488   -5.3970   -1.8068 C   0  0  0  0  0  0  0  0  0  0  0  0
    2.0041   -6.7829   -1.8941 C   0  0  0  0  0  0  0  0  0  0  0  0
    3.1420   -7.5821   -1.9227 C   0  0  0  0  0  0  0  0  0  0  0  0
    3.0140   -9.0969   -2.0349 C   0  0  0  0  0  0  0  0  0  0  0  0
    1.7164   -9.5237   -2.0916 F   0  0  0  0  0  0  0  0  0  0  0  0
    3.6082   -9.6019   -3.1545 F   0  0  0  0  0  0  0  0  0  0  0  0
    3.5664   -9.7617   -0.9801 F   0  0  0  0  0  0  0  0  0  0  0  0
    4.3868   -7.0337   -1.8574 N   0  0  0  0  0  0  0  0  0  0  0  0
    4.5192   -5.6795   -1.7707 C   0  0  0  0  0  0  0  0  0  0  0  0
    5.9423   -5.1985   -1.6973 C   0  0  0  0  0  0  0  0  0  0  0  0
    2.4311   -2.6061   -1.5666 O   0  0  0  0  0  0  0  0  0  0  0  0
    2.6976    2.3221   -1.0274 H   0  0  0  0  0  0  0  0  0  0  0  0
    3.7818    1.4238   -2.1064 H   0  0  0  0  0  0  0  0  0  0  0  0
    3.8388    1.1509   -0.3430 H   0  0  0  0  0  0  0  0  0  0  0  0
    1.2498   -4.7817   -1.7901 H   0  0  0  0  0  0  0  0  0  0  0  0
    1.0111   -7.2229   -1.9422 H   0  0  0  0  0  0  0  0  0  0  0  0
    6.6370   -6.0461   -1.6988 H   0  0  0  0  0  0  0  0  0  0  0  0
    6.1130   -4.6401   -0.7720 H   0  0  0  0  0  0  0  0  0  0  0  0
    6.1841   -4.5762   -2.5640 H   0  0  0  0  0  0  0  0  0  0  0  0
  1  2  1  0  0  0  0
  1 19  1  0  0  0  0
  1 20  1  0  0  0  0
  1 21  1  0  0  0  0
  2  3  1  0  0  0  0
  3  4  2  0  0  0  0
  3 18  1  0  0  0  0
  4  5  1  0  0  0  0
  5  6  2  0  0  0  0
  6  7  1  0  0  0  0
  6 18  1  0  0  0  0
  7  8  1  0  0  0  0
  7 16  2  0  0  0  0
  8  9  2  0  0  0  0
  8 22  1  0  0  0  0
  9 10  1  0  0  0  0
  9 23  1  0  0  0  0
 10 11  1  0  0  0  0
 10 15  2  0  0  0  0
 11 12  1  0  0  0  0
 11 13  1  0  0  0  0
 11 14  1  0  0  0  0
 15 16  1  0  0  0  0
 16 17  1  0  0  0  0
 17 24  1  0  0  0  0
 17 25  1  0  0  0  0
 17 26  1  0  0  0  0
M  END
>  <Energy>
86.4008

$$$$

 OpenBabel04232614443D

 33 35  0  0  0  0  0  0  0  0999 V2000
    2.2144   -3.7732    2.5334 C   0  0  0  0  0  0  0  0  0  0  0  0
    0.8887   -3.0715    2.4918 C   0  0  0  0  0  0  0  0  0  0  0  0
    0.4002   -2.3963    3.6162 C   0  0  0  0  0  0  0  0  0  0  0  0
   -0.8146   -1.7122    3.5596 C   0  0  0  0  0  0  0  0  0  0  0  0
   -1.5627   -1.7085    2.3818 C   0  0  0  0  0  0  0  0  0  0  0  0
   -1.1178   -2.4323    1.2679 C   0  0  0  0  0  0  0  0  0  0  0  0
   -1.9103   -2.4817    0.0058 C   0  0  0  0  0  0  0  0  0  0  0  0
   -1.2945   -2.5148   -1.0578 O   0  0  0  0  0  0  0  0  0  0  0  0
   -3.3108   -2.4957    0.1187 N   0  0  0  0  0  0  0  0  0  0  0  0
   -4.2154   -3.2045    0.9624 C   0  0  0  0  0  0  0  0  0  0  0  0
   -3.8354   -4.2831    2.1868 S   0  0  0  0  0  0  0  0  0  0  0  0
   -5.5254   -2.9436    0.5705 N   0  0  0  0  0  0  0  0  0  0  0  0
   -5.4044   -2.2802   -0.5447 C   0  0  0  0  0  0  0  0  0  0  0  0
   -6.5478   -1.7972   -1.3550 C   0  0  0  0  0  0  0  0  0  0  0  0
   -6.2372   -1.1281   -2.4858 C   0  0  0  0  0  0  0  0  0  0  0  0
   -7.2937   -0.5889   -3.4040 C   0  0  0  0  0  0  0  0  0  0  0  0
   -4.8376   -0.8895   -2.8680 C   0  0  0  0  0  0  0  0  0  0  0  0
   -3.8341   -1.3287   -2.0835 C   0  0  0  0  0  0  0  0  0  0  0  0
   -4.1089   -2.0359   -0.9399 N   0  0  0  0  0  0  0  0  0  0  0  0
    0.1235   -3.0833    1.3162 C   0  0  0  0  0  0  0  0  0  0  0  0
    2.6794   -3.6934    3.5219 H   0  0  0  0  0  0  0  0  0  0  0  0
    2.8992   -3.3268    1.8051 H   0  0  0  0  0  0  0  0  0  0  0  0
    2.0886   -4.8366    2.3074 H   0  0  0  0  0  0  0  0  0  0  0  0
    0.9667   -2.3928    4.5455 H   0  0  0  0  0  0  0  0  0  0  0  0
   -1.1809   -1.1867    4.4382 H   0  0  0  0  0  0  0  0  0  0  0  0
   -2.4954   -1.1514    2.3585 H   0  0  0  0  0  0  0  0  0  0  0  0
   -7.5516   -2.0008   -1.0096 H   0  0  0  0  0  0  0  0  0  0  0  0
   -8.3025   -0.7934   -3.0287 H   0  0  0  0  0  0  0  0  0  0  0  0
   -7.2114   -1.0460   -4.3961 H   0  0  0  0  0  0  0  0  0  0  0  0
   -7.1958    0.4969   -3.5106 H   0  0  0  0  0  0  0  0  0  0  0  0
   -4.6283   -0.3511   -3.7875 H   0  0  0  0  0  0  0  0  0  0  0  0
   -2.7914   -1.1659   -2.3304 H   0  0  0  0  0  0  0  0  0  0  0  0
    0.4925   -3.6081    0.4362 H   0  0  0  0  0  0  0  0  0  0  0  0
  1  2  1  0  0  0  0
  1 21  1  0  0  0  0
  1 22  1  0  0  0  0
  1 23  1  0  0  0  0
  2  3  1  0  0  0  0
  2 20  2  0  0  0  0
  3  4  2  0  0  0  0
  3 24  1  0  0  0  0
  4  5  1  0  0  0  0
  4 25  1  0  0  0  0
  5  6  2  0  0  0  0
  5 26  1  0  0  0  0
  6  7  1  0  0  0  0
  6 20  1  0  0  0  0
  7  8  2  0  0  0  0
  7  9  1  0  0  0  0
  9 10  1  0  0  0  0
  9 19  1  0  0  0  0
 10 11  2  0  0  0  0
 10 12  1  0  0  0  0
 12 13  2  0  0  0  0
 13 14  1  0  0  0  0
 13 19  1  0  0  0  0
 14 15  2  0  0  0  0
 14 27  1  0  0  0  0
 15 16  1  0  0  0  0
 15 17  1  0  0  0  0
 16 28  1  0  0  0  0
 16 29  1  0  0  0  0
 16 30  1  0  0  0  0
 17 18  2  0  0  0  0
 17 31  1  0  0  0  0
 18 19  1  0  0  0  0
 18 32  1  0  0  0  0
 20 33  1  0  0  0  0
M  END
>  <Energy>
61.5351

$$$$

 OpenBabel04232614443D

 33 36  0  0  0  0  0  0  0  0999 V2000
    1.0144   -0.0421   -0.0458 C   0  0  0  0  0  0  0  0  0  0  0  0
    2.5131   -0.0255   -0.0494 C   0  0  0  0  0  0  0  0  0  0  0  0
    3.1072    1.1851   -0.0165 N   0  0  0  0  0  0  0  0  0  0  0  0
    4.4611    1.2520    0.0528 C   0  0  0  0  0  0  0  0  0  0  0  0
    5.1147    2.4722    0.1237 O   0  0  0  0  0  0  0  0  0  0  0  0
    4.4505    3.5370    0.6909 C   0  0  0  0  0  0  0  0  0  0  0  0
    3.5922    3.4282    1.7897 C   0  0  0  0  0  0  0  0  0  0  0  0
    2.9740    4.5646    2.3134 C   0  0  0  0  0  0  0  0  0  0  0  0
    3.2417    5.8186    1.7663 C   0  0  0  0  0  0  0  0  0  0  0  0
    4.1316    5.9369    0.6996 C   0  0  0  0  0  0  0  0  0  0  0  0
    4.7384    4.7981    0.1648 C   0  0  0  0  0  0  0  0  0  0  0  0
    5.1630    0.0667    0.0193 C   0  0  0  0  0  0  0  0  0  0  0  0
    6.5081   -0.1377    0.0391 O   0  0  0  0  0  0  0  0  0  0  0  0
    6.6941   -1.4899    0.0201 C   0  0  0  0  0  0  0  0  0  0  0  0
    7.9289   -2.1352    0.0320 C   0  0  0  0  0  0  0  0  0  0  0  0
    7.9040   -3.5345    0.0269 C   0  0  0  0  0  0  0  0  0  0  0  0
    6.6964   -4.2381    0.0101 C   0  0  0  0  0  0  0  0  0  0  0  0
    5.4687   -3.5628   -0.0089 C   0  0  0  0  0  0  0  0  0  0  0  0
    5.4707   -2.1558   -0.0063 C   0  0  0  0  0  0  0  0  0  0  0  0
    4.4827   -1.1386   -0.0206 C   0  0  0  0  0  0  0  0  0  0  0  0
    3.1320   -1.2221   -0.0471 N   0  0  0  0  0  0  0  0  0  0  0  0
    0.6101    0.9746   -0.0529 H   0  0  0  0  0  0  0  0  0  0  0  0
    0.6530   -0.5502    0.8531 H   0  0  0  0  0  0  0  0  0  0  0  0
    0.6427   -0.5705   -0.9285 H   0  0  0  0  0  0  0  0  0  0  0  0
    3.3848    2.4635    2.2436 H   0  0  0  0  0  0  0  0  0  0  0  0
    2.2853    4.4685    3.1488 H   0  0  0  0  0  0  0  0  0  0  0  0
    2.7602    6.7024    2.1761 H   0  0  0  0  0  0  0  0  0  0  0  0
    4.3524    6.9162    0.2834 H   0  0  0  0  0  0  0  0  0  0  0  0
    5.4330    4.8956   -0.6648 H   0  0  0  0  0  0  0  0  0  0  0  0
    8.8576   -1.5775    0.0477 H   0  0  0  0  0  0  0  0  0  0  0  0
    8.8432   -4.0843    0.0382 H   0  0  0  0  0  0  0  0  0  0  0  0
    6.7071   -5.3263    0.0118 H   0  0  0  0  0  0  0  0  0  0  0  0
    4.5314   -4.1120   -0.0210 H   0  0  0  0  0  0  0  0  0  0  0  0
  1  2  1  0  0  0  0
  1 22  1  0  0  0  0
  1 23  1  0  0  0  0
  1 24  1  0  0  0  0
  2  3  1  0  0  0  0
  2 21  2  0  0  0  0
  3  4  2  0  0  0  0
  4  5  1  0  0  0  0
  4 12  1  0  0  0  0
  5  6  1  0  0  0  0
  6  7  1  0  0  0  0
  6 11  2  0  0  0  0
  7  8  2  0  0  0  0
  7 25  1  0  0  0  0
  8  9  1  0  0  0  0
  8 26  1  0  0  0  0
  9 10  2  0  0  0  0
  9 27  1  0  0  0  0
 10 11  1  0  0  0  0
 10 28  1  0  0  0  0
 11 29  1  0  0  0  0
 12 13  1  0  0  0  0
 12 20  2  0  0  0  0
 13 14  1  0  0  0  0
 14 15  1  0  0  0  0
 14 19  2  0  0  0  0
 15 16  2  0  0  0  0
 15 30  1  0  0  0  0
 16 17  1  0  0  0  0
 16 31  1  0  0  0  0
 17 18  2  0  0  0  0
 17 32  1  0  0  0  0
 18 19  1  0  0  0  0
 18 33  1  0  0  0  0
 19 20  1  0  0  0  0
 20 21  1  0  0  0  0
M  END
>  <Energy>
49.3568

$$$$

 OpenBabel04232614443D

 37 40  0  0  0  0  0  0  0  0999 V2000
   -1.9893    0.4214    2.2076 C   0  0  0  0  0  0  0  0  0  0  0  0
   -1.3432   -0.0044    0.9883 N   0  0  0  0  0  0  0  0  0  0  0  0
   -1.8709   -0.8132    0.0035 C   0  0  0  0  0  0  0  0  0  0  0  0
   -3.2726   -1.3491    0.0052 C   0  0  0  0  0  0  0  0  0  0  0  0
   -4.2925   -0.2568   -0.0814 C   0  0  0  0  0  0  0  0  0  0  0  0
   -4.9130    0.2803    0.9530 N   0  0  0  0  0  0  0  0  0  0  0  0
   -5.6615    1.3092    0.4452 C   0  0  0  0  0  0  0  0  0  0  0  0
   -6.4790    2.2262    1.1218 C   0  0  0  0  0  0  0  0  0  0  0  0
   -7.1227    3.2263    0.3853 C   0  0  0  0  0  0  0  0  0  0  0  0
   -6.9630    3.3043   -0.9987 C   0  0  0  0  0  0  0  0  0  0  0  0
   -6.1650    2.3859   -1.6925 C   0  0  0  0  0  0  0  0  0  0  0  0
   -5.5215    1.3970   -0.9369 C   0  0  0  0  0  0  0  0  0  0  0  0
   -4.6744    0.3601   -1.2549 N   0  0  0  0  0  0  0  0  0  0  0  0
   -4.2495   -0.0203   -2.5811 C   0  0  0  0  0  0  0  0  0  0  0  0
   -0.9775   -1.0421   -0.9423 N   0  0  0  0  0  0  0  0  0  0  0  0
    0.1433   -0.3409   -0.5748 C   0  0  0  0  0  0  0  0  0  0  0  0
    1.3843   -0.2374   -1.2218 C   0  0  0  0  0  0  0  0  0  0  0  0
    2.3762    0.5730   -0.6555 C   0  0  0  0  0  0  0  0  0  0  0  0
    2.1359    1.2708    0.5293 C   0  0  0  0  0  0  0  0  0  0  0  0
    0.9084    1.1705    1.1943 C   0  0  0  0  0  0  0  0  0  0  0  0
   -0.0649    0.3449    0.6167 C   0  0  0  0  0  0  0  0  0  0  0  0
   -2.7749   -0.2823    2.4850 H   0  0  0  0  0  0  0  0  0  0  0  0
   -2.3990    1.4221    2.0469 H   0  0  0  0  0  0  0  0  0  0  0  0
   -1.2501    0.4409    3.0129 H   0  0  0  0  0  0  0  0  0  0  0  0
   -3.4382   -1.9348    0.9172 H   0  0  0  0  0  0  0  0  0  0  0  0
   -3.3979   -2.0484   -0.8296 H   0  0  0  0  0  0  0  0  0  0  0  0
   -6.5940    2.1589    2.1973 H   0  0  0  0  0  0  0  0  0  0  0  0
   -7.7488    3.9508    0.9002 H   0  0  0  0  0  0  0  0  0  0  0  0
   -7.4669    4.0954   -1.5501 H   0  0  0  0  0  0  0  0  0  0  0  0
   -6.0479    2.4581   -2.7681 H   0  0  0  0  0  0  0  0  0  0  0  0
   -4.6534    0.6726   -3.3218 H   0  0  0  0  0  0  0  0  0  0  0  0
   -4.6262   -1.0259   -2.7849 H   0  0  0  0  0  0  0  0  0  0  0  0
   -3.1582    0.0003   -2.6253 H   0  0  0  0  0  0  0  0  0  0  0  0
    1.5617   -0.7785   -2.1441 H   0  0  0  0  0  0  0  0  0  0  0  0
    3.3412    0.6609   -1.1481 H   0  0  0  0  0  0  0  0  0  0  0  0
    2.9175    1.9031    0.9457 H   0  0  0  0  0  0  0  0  0  0  0  0
    0.7275    1.7145    2.1144 H   0  0  0  0  0  0  0  0  0  0  0  0
  1  2  1  0  0  0  0
  1 22  1  0  0  0  0
  1 23  1  0  0  0  0
  1 24  1  0  0  0  0
  2  3  1  0  0  0  0
  2 21  1  0  0  0  0
  3  4  1  0  0  0  0
  3 15  2  0  0  0  0
  4  5  1  0  0  0  0
  4 25  1  0  0  0  0
  4 26  1  0  0  0  0
  5  6  2  0  0  0  0
  5 13  1  0  0  0  0
  6  7  1  0  0  0  0
  7  8  1  0  0  0  0
  7 12  2  0  0  0  0
  8  9  2  0  0  0  0
  8 27  1  0  0  0  0
  9 10  1  0  0  0  0
  9 28  1  0  0  0  0
 10 11  2  0  0  0  0
 10 29  1  0  0  0  0
 11 12  1  0  0  0  0
 11 30  1  0  0  0  0
 12 13  1  0  0  0  0
 13 14  1  0  0  0  0
 14 31  1  0  0  0  0
 14 32  1  0  0  0  0
 14 33  1  0  0  0  0
 15 16  1  0  0  0  0
 16 17  1  0  0  0  0
 16 21  2  0  0  0  0
 17 18  2  0  0  0  0
 17 34  1  0  0  0  0
 18 19  1  0  0  0  0
 18 35  1  0  0  0  0
 19 20  2  0  0  0  0
 19 36  1  0  0  0  0
 20 21  1  0  0  0  0
 20 37  1  0  0  0  0
M  END
>  <Energy>
37.6744

$$$$

 OpenBabel04232614443D

 32 35  0  0  0  0  0  0  0  0999 V2000
    0.4783   -1.0741   -3.8407 N   0  0  0  0  0  0  0  0  0  0  0  0
    0.1224   -0.7028   -2.7980 C   0  0  0  0  0  0  0  0  0  0  0  0
   -0.3089   -0.2581   -1.5141 C   0  0  0  0  0  0  0  0  0  0  0  0
    0.0894   -0.9289   -0.3694 C   0  0  0  0  0  0  0  0  0  0  0  0
   -0.2753   -0.5636    0.8792 N   0  0  0  0  0  0  0  0  0  0  0  0
   -1.0584    0.5402    0.9853 C   0  0  0  0  0  0  0  0  0  0  0  0
   -1.5144    1.2913   -0.0929 C   0  0  0  0  0  0  0  0  0  0  0  0
   -2.2956    2.5079    0.0503 C   0  0  0  0  0  0  0  0  0  0  0  0
   -2.1984    3.5112   -0.8929 N   0  0  0  0  0  0  0  0  0  0  0  0
   -2.9924    4.4722   -0.4800 C   0  0  0  0  0  0  0  0  0  0  0  0
   -3.2662    5.7577   -1.0321 C   0  0  0  0  0  0  0  0  0  0  0  0
   -4.1341    6.5788   -0.4099 C   0  0  0  0  0  0  0  0  0  0  0  0
   -4.7843    6.1770    0.8198 C   0  0  0  0  0  0  0  0  0  0  0  0
   -5.6394    7.0329    1.4088 F   0  0  0  0  0  0  0  0  0  0  0  0
   -4.5296    4.9766    1.3566 C   0  0  0  0  0  0  0  0  0  0  0  0
   -3.6425    4.1239    0.7029 N   0  0  0  0  0  0  0  0  0  0  0  0
   -3.2063    2.8559    1.0349 C   0  0  0  0  0  0  0  0  0  0  0  0
   -3.6013    2.0634    2.2651 C   0  0  0  0  0  0  0  0  0  0  0  0
   -4.2701    0.7286    2.1158 C   0  0  0  0  0  0  0  0  0  0  0  0
   -5.0251    1.8993    2.6994 C   0  0  0  0  0  0  0  0  0  0  0  0
   -1.1265    0.8652   -1.3697 C   0  0  0  0  0  0  0  0  0  0  0  0
    0.7408   -1.7995   -0.4171 H   0  0  0  0  0  0  0  0  0  0  0  0
   -1.2844    0.8098    2.0103 H   0  0  0  0  0  0  0  0  0  0  0  0
   -2.7626    6.0486   -1.9472 H   0  0  0  0  0  0  0  0  0  0  0  0
   -4.3670    7.5613   -0.8056 H   0  0  0  0  0  0  0  0  0  0  0  0
   -4.9849    4.6431    2.2770 H   0  0  0  0  0  0  0  0  0  0  0  0
   -2.8583    2.1229    3.0585 H   0  0  0  0  0  0  0  0  0  0  0  0
   -3.9714   -0.0693    2.7867 H   0  0  0  0  0  0  0  0  0  0  0  0
   -4.5569    0.3889    1.1265 H   0  0  0  0  0  0  0  0  0  0  0  0
   -5.2292    1.8851    3.7646 H   0  0  0  0  0  0  0  0  0  0  0  0
   -5.8342    2.2977    2.0990 H   0  0  0  0  0  0  0  0  0  0  0  0
   -1.4496    1.4222   -2.2484 H   0  0  0  0  0  0  0  0  0  0  0  0
  1  2  3  0  0  0  0
  2  3  1  0  0  0  0
  3  4  1  0  0  0  0
  3 21  2  0  0  0  0
  4  5  2  0  0  0  0
  4 22  1  0  0  0  0
  5  6  1  0  0  0  0
  6  7  2  0  0  0  0
  6 23  1  0  0  0  0
  7  8  1  0  0  0  0
  7 21  1  0  0  0  0
  8  9  1  0  0  0  0
  8 17  2  0  0  0  0
  9 10  2  0  0  0  0
 10 11  1  0  0  0  0
 10 16  1  0  0  0  0
 11 12  2  0  0  0  0
 11 24  1  0  0  0  0
 12 13  1  0  0  0  0
 12 25  1  0  0  0  0
 13 14  1  0  0  0  0
 13 15  2  0  0  0  0
 15 16  1  0  0  0  0
 15 26  1  0  0  0  0
 16 17  1  0  0  0  0
 17 18  1  0  0  0  0
 18 19  1  0  0  0  0
 18 20  1  0  0  0  0
 18 27  1  0  0  0  0
 19 20  1  0  0  0  0
 19 28  1  0  0  0  0
 19 29  1  0  0  0  0
 20 30  1  0  0  0  0
 20 31  1  0  0  0  0
 21 32  1  0  0  0  0
M  END
>  <Energy>
76.4208

$$$$

 OpenBabel04232614443D

 33 35  0  0  0  0  0  0  0  0999 V2000
    6.2760    3.2378    4.6001 C   0  0  0  0  0  0  0  0  0  0  0  0
    6.1763    2.8844    3.1602 C   0  0  0  0  0  0  0  0  0  0  0  0
    5.8647    3.8163    2.2567 N   0  0  0  0  0  0  0  0  0  0  0  0
    5.7621    3.1262    1.1082 N   0  0  0  0  0  0  0  0  0  0  0  0
    5.1472    3.7853   -0.0232 C   0  0  0  0  0  0  0  0  0  0  0  0
    6.2547    1.8365    1.1845 C   0  0  0  0  0  0  0  0  0  0  0  0
    6.4075    0.9686    0.0294 C   0  0  0  0  0  0  0  0  0  0  0  0
    5.5317    0.9643   -0.8353 O   0  0  0  0  0  0  0  0  0  0  0  0
    7.5798    0.2187   -0.0993 N   0  0  0  0  0  0  0  0  0  0  0  0
    8.7435    0.2083    0.8093 C   0  0  0  0  0  0  0  0  0  0  0  0
    9.8271   -0.6849    0.1962 C   0  0  0  0  0  0  0  0  0  0  0  0
    9.1060   -1.2867   -0.9616 C   0  0  0  0  0  0  0  0  0  0  0  0
    9.5793   -2.2797   -1.8088 C   0  0  0  0  0  0  0  0  0  0  0  0
    8.7856   -2.6609   -2.8887 C   0  0  0  0  0  0  0  0  0  0  0  0
    7.5508   -2.0375   -3.1119 C   0  0  0  0  0  0  0  0  0  0  0  0
    7.0760   -1.0518   -2.2368 C   0  0  0  0  0  0  0  0  0  0  0  0
    7.8536   -0.6953   -1.1467 C   0  0  0  0  0  0  0  0  0  0  0  0
    6.3532    1.6183    2.5499 C   0  0  0  0  0  0  0  0  0  0  0  0
    6.5650    0.1713    3.4180 Cl  0  0  0  0  0  0  0  0  0  0  0  0
    5.9290    4.2594    4.7875 H   0  0  0  0  0  0  0  0  0  0  0  0
    7.3160    3.1673    4.9351 H   0  0  0  0  0  0  0  0  0  0  0  0
    5.6695    2.5612    5.2110 H   0  0  0  0  0  0  0  0  0  0  0  0
    4.5537    4.6305    0.3413 H   0  0  0  0  0  0  0  0  0  0  0  0
    4.4696    3.0948   -0.5284 H   0  0  0  0  0  0  0  0  0  0  0  0
    5.9337    4.1380   -0.6916 H   0  0  0  0  0  0  0  0  0  0  0  0
    8.4476   -0.2393    1.7551 H   0  0  0  0  0  0  0  0  0  0  0  0
    9.0943    1.2284    0.9945 H   0  0  0  0  0  0  0  0  0  0  0  0
   10.1679   -1.4443    0.9072 H   0  0  0  0  0  0  0  0  0  0  0  0
   10.6808   -0.0915   -0.1456 H   0  0  0  0  0  0  0  0  0  0  0  0
   10.5427   -2.7505   -1.6392 H   0  0  0  0  0  0  0  0  0  0  0  0
    9.1286   -3.4391   -3.5666 H   0  0  0  0  0  0  0  0  0  0  0  0
    6.9499   -2.3266   -3.9712 H   0  0  0  0  0  0  0  0  0  0  0  0
    6.1143   -0.5929   -2.4354 H   0  0  0  0  0  0  0  0  0  0  0  0
  1  2  1  0  0  0  0
  1 20  1  0  0  0  0
  1 21  1  0  0  0  0
  1 22  1  0  0  0  0
  2  3  2  0  0  0  0
  2 18  1  0  0  0  0
  3  4  1  0  0  0  0
  4  5  1  0  0  0  0
  4  6  1  0  0  0  0
  5 23  1  0  0  0  0
  5 24  1  0  0  0  0
  5 25  1  0  0  0  0
  6  7  1  0  0  0  0
  6 18  2  0  0  0  0
  7  8  2  0  0  0  0
  7  9  1  0  0  0  0
  9 10  1  0  0  0  0
  9 17  1  0  0  0  0
 10 11  1  0  0  0  0
 10 26  1  0  0  0  0
 10 27  1  0  0  0  0
 11 12  1  0  0  0  0
 11 28  1  0  0  0  0
 11 29  1  0  0  0  0
 12 13  1  0  0  0  0
 12 17  2  0  0  0  0
 13 14  2  0  0  0  0
 13 30  1  0  0  0  0
 14 15  1  0  0  0  0
 14 31  1  0  0  0  0
 15 16  2  0  0  0  0
 15 32  1  0  0  0  0
 16 17  1  0  0  0  0
 16 33  1  0  0  0  0
 18 19  1  0  0  0  0
M  END
>  <Energy>
18.9866

$$$$

 OpenBabel04232614443D

 40 43  0  0  0  0  0  0  0  0999 V2000
    0.9584    0.0258    0.1981 O   0  0  0  0  0  0  0  0  0  0  0  0
    2.1831   -0.0022    0.1131 C   0  0  0  0  0  0  0  0  0  0  0  0
    2.8845   -1.1878    0.0229 N   0  0  0  0  0  0  0  0  0  0  0  0
    4.1752   -1.1225    0.0213 C   0  0  0  0  0  0  0  0  0  0  0  0
    4.9272    0.0210    0.0961 N   0  0  0  0  0  0  0  0  0  0  0  0
    4.3197    1.2591    0.0853 C   0  0  0  0  0  0  0  0  0  0  0  0
    5.0170    2.4717    0.0549 C   0  0  0  0  0  0  0  0  0  0  0  0
    4.3303    3.6897    0.0340 C   0  0  0  0  0  0  0  0  0  0  0  0
    2.9367    3.7118    0.0545 C   0  0  0  0  0  0  0  0  0  0  0  0
    2.2247    2.5157    0.0896 C   0  0  0  0  0  0  0  0  0  0  0  0
    2.9169    1.2976    0.0970 C   0  0  0  0  0  0  0  0  0  0  0  0
    6.3538   -0.2335    0.0659 C   0  0  0  0  0  0  0  0  0  0  0  0
    6.4816   -1.7686    0.0022 C   0  0  0  0  0  0  0  0  0  0  0  0
    5.0816   -2.3085   -0.0714 C   0  0  0  0  0  0  0  0  0  0  0  0
    4.6205   -3.5624   -0.1467 C   0  0  0  0  0  0  0  0  0  0  0  0
    5.2593   -4.7955   -0.2318 N   0  0  0  0  0  0  0  0  0  0  0  0
    6.6970   -4.9716   -0.4684 C   0  0  0  0  0  0  0  0  0  0  0  0
    6.9571   -6.1907   -1.3521 C   0  0  0  0  0  0  0  0  0  0  0  0
    6.2955   -7.4455   -0.7982 C   0  0  0  0  0  0  0  0  0  0  0  0
    4.8101   -7.1983   -0.5642 C   0  0  0  0  0  0  0  0  0  0  0  0
    4.5954   -5.9870    0.3347 C   0  0  0  0  0  0  0  0  0  0  0  0
    6.1034    2.4900    0.0399 H   0  0  0  0  0  0  0  0  0  0  0  0
    4.8863    4.6236   -0.0001 H   0  0  0  0  0  0  0  0  0  0  0  0
    2.4047    4.6610    0.0401 H   0  0  0  0  0  0  0  0  0  0  0  0
    1.1367    2.5267    0.1044 H   0  0  0  0  0  0  0  0  0  0  0  0
    6.8500    0.1559    0.9621 H   0  0  0  0  0  0  0  0  0  0  0  0
    6.8189    0.2178   -0.8182 H   0  0  0  0  0  0  0  0  0  0  0  0
    6.9909   -2.1424    0.8977 H   0  0  0  0  0  0  0  0  0  0  0  0
    7.0722   -2.0341   -0.8784 H   0  0  0  0  0  0  0  0  0  0  0  0
    3.5358   -3.6908   -0.1329 H   0  0  0  0  0  0  0  0  0  0  0  0
    7.2203   -5.0657    0.4900 H   0  0  0  0  0  0  0  0  0  0  0  0
    7.1211   -4.1162   -0.9968 H   0  0  0  0  0  0  0  0  0  0  0  0
    8.0364   -6.3505   -1.4514 H   0  0  0  0  0  0  0  0  0  0  0  0
    6.5685   -5.9955   -2.3599 H   0  0  0  0  0  0  0  0  0  0  0  0
    6.7774   -7.7307    0.1447 H   0  0  0  0  0  0  0  0  0  0  0  0
    6.4306   -8.2778   -1.4972 H   0  0  0  0  0  0  0  0  0  0  0  0
    4.3534   -8.0842   -0.1096 H   0  0  0  0  0  0  0  0  0  0  0  0
    4.3113   -7.0329   -1.5274 H   0  0  0  0  0  0  0  0  0  0  0  0
    5.0026   -6.1785    1.3357 H   0  0  0  0  0  0  0  0  0  0  0  0
    3.5176   -5.8239    0.4548 H   0  0  0  0  0  0  0  0  0  0  0  0
  1  2  2  0  0  0  0
  2  3  1  0  0  0  0
  2 11  1  0  0  0  0
  3  4  2  0  0  0  0
  4  5  1  0  0  0  0
  4 14  1  0  0  0  0
  5  6  1  0  0  0  0
  5 12  1  0  0  0  0
  6  7  1  0  0  0  0
  6 11  2  0  0  0  0
  7  8  2  0  0  0  0
  7 22  1  0  0  0  0
  8  9  1  0  0  0  0
  8 23  1  0  0  0  0
  9 10  2  0  0  0  0
  9 24  1  0  0  0  0
 10 11  1  0  0  0  0
 10 25  1  0  0  0  0
 12 13  1  0  0  0  0
 12 26  1  0  0  0  0
 12 27  1  0  0  0  0
 13 14  1  0  0  0  0
 13 28  1  0  0  0  0
 13 29  1  0  0  0  0
 14 15  2  0  0  0  0
 15 16  1  0  0  0  0
 15 30  1  0  0  0  0
 16 17  1  0  0  0  0
 16 21  1  0  0  0  0
 17 18  1  0  0  0  0
 17 31  1  0  0  0  0
 17 32  1  0  0  0  0
 18 19  1  0  0  0  0
 18 33  1  0  0  0  0
 18 34  1  0  0  0  0
 19 20  1  0  0  0  0
 19 35  1  0  0  0  0
 19 36  1  0  0  0  0
 20 21  1  0  0  0  0
 20 37  1  0  0  0  0
 20 38  1  0  0  0  0
 21 39  1  0  0  0  0
 21 40  1  0  0  0  0
M  END
>  <Energy>
37.625

$$$$

 OpenBabel04232614443D

 35 38  0  0  0  0  0  0  0  0999 V2000
    0.9713    0.0961   -0.0321 C   0  0  0  0  0  0  0  0  0  0  0  0
    2.4766    0.0544   -0.0360 C   0  0  0  0  0  0  0  0  0  0  0  0
    3.1929    1.2618   -0.0366 C   0  0  0  0  0  0  0  0  0  0  0  0
    4.5913    1.2762   -0.0468 C   0  0  0  0  0  0  0  0  0  0  0  0
    5.2762    2.5026   -0.0496 N   0  0  0  0  0  0  0  0  0  0  0  0
    6.6425    2.5571   -0.0661 C   0  0  0  0  0  0  0  0  0  0  0  0
    7.2680    3.6893   -0.0767 N   0  0  0  0  0  0  0  0  0  0  0  0
    7.3998    1.3289   -0.0734 C   0  0  0  0  0  0  0  0  0  0  0  0
    8.7460    1.0331   -0.0885 C   0  0  0  0  0  0  0  0  0  0  0  0
    9.8111    1.9303   -0.1023 C   0  0  0  0  0  0  0  0  0  0  0  0
   11.0481    1.2475   -0.1155 C   0  0  0  0  0  0  0  0  0  0  0  0
   11.1771   -0.1849   -0.1145 C   0  0  0  0  0  0  0  0  0  0  0  0
   10.0814   -1.0814   -0.1003 C   0  0  0  0  0  0  0  0  0  0  0  0
    8.8797   -0.3842   -0.0878 C   0  0  0  0  0  0  0  0  0  0  0  0
    7.6229   -0.9353   -0.0733 C   0  0  0  0  0  0  0  0  0  0  0  0
    6.7138    0.1116   -0.0654 N   0  0  0  0  0  0  0  0  0  0  0  0
    5.2874    0.0506   -0.0534 C   0  0  0  0  0  0  0  0  0  0  0  0
    4.5883   -1.1622   -0.0501 C   0  0  0  0  0  0  0  0  0  0  0  0
    3.1803   -1.1682   -0.0418 C   0  0  0  0  0  0  0  0  0  0  0  0
    2.4406   -2.4800   -0.0392 C   0  0  0  0  0  0  0  0  0  0  0  0
    0.5966    1.1254   -0.0266 H   0  0  0  0  0  0  0  0  0  0  0  0
    0.5781   -0.4007    0.8603 H   0  0  0  0  0  0  0  0  0  0  0  0
    0.5751   -0.3918   -0.9282 H   0  0  0  0  0  0  0  0  0  0  0  0
    2.6479    2.2034   -0.0305 H   0  0  0  0  0  0  0  0  0  0  0  0
    4.7350    3.3502   -0.0506 H   0  0  0  0  0  0  0  0  0  0  0  0
    6.5952    4.4545   -0.0698 H   0  0  0  0  0  0  0  0  0  0  0  0
    9.7283    3.0082   -0.1033 H   0  0  0  0  0  0  0  0  0  0  0  0
   11.9610    1.8438   -0.1271 H   0  0  0  0  0  0  0  0  0  0  0  0
   12.1851   -0.6006   -0.1253 H   0  0  0  0  0  0  0  0  0  0  0  0
   10.1938   -2.1555   -0.0998 H   0  0  0  0  0  0  0  0  0  0  0  0
    7.3057   -1.9671   -0.0686 H   0  0  0  0  0  0  0  0  0  0  0  0
    5.1146   -2.1120   -0.0555 H   0  0  0  0  0  0  0  0  0  0  0  0
    3.1267   -3.3327   -0.0446 H   0  0  0  0  0  0  0  0  0  0  0  0
    1.8070   -2.5596   -0.9286 H   0  0  0  0  0  0  0  0  0  0  0  0
    1.8181   -2.5621    0.8579 H   0  0  0  0  0  0  0  0  0  0  0  0
  1  2  1  0  0  0  0
  1 21  1  0  0  0  0
  1 22  1  0  0  0  0
  1 23  1  0  0  0  0
  2  3  1  0  0  0  0
  2 19  2  0  0  0  0
  3  4  2  0  0  0  0
  3 24  1  0  0  0  0
  4  5  1  0  0  0  0
  4 17  1  0  0  0  0
  5  6  1  0  0  0  0
  5 25  1  0  0  0  0
  6  7  2  0  0  0  0
  6  8  1  0  0  0  0
  7 26  1  0  0  0  0
  8  9  2  0  0  0  0
  8 16  1  0  0  0  0
  9 10  1  0  0  0  0
  9 14  1  0  0  0  0
 10 11  2  0  0  0  0
 10 27  1  0  0  0  0
 11 12  1  0  0  0  0
 11 28  1  0  0  0  0
 12 13  2  0  0  0  0
 12 29  1  0  0  0  0
 13 14  1  0  0  0  0
 13 30  1  0  0  0  0
 14 15  2  0  0  0  0
 15 16  1  0  0  0  0
 15 31  1  0  0  0  0
 16 17  1  0  0  0  0
 17 18  2  0  0  0  0
 18 19  1  0  0  0  0
 18 32  1  0  0  0  0
 19 20  1  0  0  0  0
 20 33  1  0  0  0  0
 20 34  1  0  0  0  0
 20 35  1  0  0  0  0
M  END
>  <Energy>
6.30452

$$$$

 OpenBabel04232614443D

 29 32  0  0  0  0  0  0  0  0999 V2000
    1.8895    0.1659    0.9746 N   0  0  0  0  0  0  0  0  0  0  0  0
    0.6629   -0.1091    0.5033 C   0  0  0  0  0  0  0  0  0  0  0  0
    0.1095   -1.2925    0.5903 N   0  0  0  0  0  0  0  0  0  0  0  0
   -1.1489   -1.2795    0.0070 C   0  0  0  0  0  0  0  0  0  0  0  0
   -1.9808   -2.4781   -0.0202 C   0  0  0  0  0  0  0  0  0  0  0  0
   -1.8427   -3.4344    1.0002 C   0  0  0  0  0  0  0  0  0  0  0  0
   -2.6106   -4.6071    1.0262 C   0  0  0  0  0  0  0  0  0  0  0  0
   -3.5099   -4.7833   -0.0203 C   0  0  0  0  0  0  0  0  0  0  0  0
   -4.3319   -5.8565   -0.1815 O   0  0  0  0  0  0  0  0  0  0  0  0
   -5.0379   -5.6486   -1.3277 C   0  0  0  0  0  0  0  0  0  0  0  0
   -5.9860   -6.5191   -1.8600 C   0  0  0  0  0  0  0  0  0  0  0  0
   -6.6031   -6.1207   -3.0509 C   0  0  0  0  0  0  0  0  0  0  0  0
   -6.2774   -4.9072   -3.6623 C   0  0  0  0  0  0  0  0  0  0  0  0
   -5.3174   -4.0519   -3.1034 C   0  0  0  0  0  0  0  0  0  0  0  0
   -4.6817   -4.4354   -1.9070 C   0  0  0  0  0  0  0  0  0  0  0  0
   -3.6845   -3.8746   -1.0574 C   0  0  0  0  0  0  0  0  0  0  0  0
   -2.9067   -2.6990   -1.0598 C   0  0  0  0  0  0  0  0  0  0  0  0
   -1.5323   -0.0562   -0.5077 C   0  0  0  0  0  0  0  0  0  0  0  0
   -0.2797    1.0912   -0.2809 S   0  0  0  0  0  0  0  0  0  0  0  0
    2.4784   -0.6377    1.1596 H   0  0  0  0  0  0  0  0  0  0  0  0
    2.3774    0.9664    0.5935 H   0  0  0  0  0  0  0  0  0  0  0  0
   -1.1214   -3.2661    1.8001 H   0  0  0  0  0  0  0  0  0  0  0  0
   -2.5067   -5.3431    1.8139 H   0  0  0  0  0  0  0  0  0  0  0  0
   -6.2267   -7.4564   -1.3731 H   0  0  0  0  0  0  0  0  0  0  0  0
   -7.3491   -6.7678   -3.5069 H   0  0  0  0  0  0  0  0  0  0  0  0
   -6.7741   -4.6216   -4.5873 H   0  0  0  0  0  0  0  0  0  0  0  0
   -5.0708   -3.1124   -3.5885 H   0  0  0  0  0  0  0  0  0  0  0  0
   -3.0189   -1.9929   -1.8764 H   0  0  0  0  0  0  0  0  0  0  0  0
   -2.4590    0.2256   -0.9849 H   0  0  0  0  0  0  0  0  0  0  0  0
  1  2  1  0  0  0  0
  1 20  1  0  0  0  0
  1 21  1  0  0  0  0
  2  3  2  0  0  0  0
  2 19  1  0  0  0  0
  3  4  1  0  0  0  0
  4  5  1  0  0  0  0
  4 18  2  0  0  0  0
  5  6  1  0  0  0  0
  5 17  2  0  0  0  0
  6  7  2  0  0  0  0
  6 22  1  0  0  0  0
  7  8  1  0  0  0  0
  7 23  1  0  0  0  0
  8  9  1  0  0  0  0
  8 16  2  0  0  0  0
  9 10  1  0  0  0  0
 10 11  1  0  0  0  0
 10 15  2  0  0  0  0
 11 12  2  0  0  0  0
 11 24  1  0  0  0  0
 12 13  1  0  0  0  0
 12 25  1  0  0  0  0
 13 14  2  0  0  0  0
 13 26  1  0  0  0  0
 14 15  1  0  0  0  0
 14 27  1  0  0  0  0
 15 16  1  0  0  0  0
 16 17  1  0  0  0  0
 17 28  1  0  0  0  0
 18 19  1  0  0  0  0
 18 29  1  0  0  0  0
M  END
>  <Energy>
-2.84935

$$$$

 OpenBabel04232614443D

 34 36  0  0  0  0  0  0  0  0999 V2000
    1.7690    1.2110    1.4093 C   0  0  0  0  0  0  0  0  0  0  0  0
    3.0811    0.6968    0.8730 C   0  0  0  0  0  0  0  0  0  0  0  0
    4.1701    1.5497    1.1000 C   0  0  0  0  0  0  0  0  0  0  0  0
    5.4561    1.1722    0.7354 C   0  0  0  0  0  0  0  0  0  0  0  0
    5.7221   -0.0748    0.1695 C   0  0  0  0  0  0  0  0  0  0  0  0
    7.0659   -0.4511    0.0047 N   0  0  0  0  0  0  0  0  0  0  0  0
    4.6461   -0.9767   -0.0306 C   0  0  0  0  0  0  0  0  0  0  0  0
    4.8777   -2.4058   -0.4571 C   0  0  0  0  0  0  0  0  0  0  0  0
    3.3184   -0.5438    0.2254 C   0  0  0  0  0  0  0  0  0  0  0  0
    2.2612   -1.1709   -0.5188 N   0  0  0  0  0  0  0  0  0  0  0  0
    2.0961   -0.6598   -1.7961 C   0  0  0  0  0  0  0  0  0  0  0  0
    2.9216   -0.3882   -2.6515 O   0  0  0  0  0  0  0  0  0  0  0  0
    0.6894   -0.3183   -1.9400 C   0  0  0  0  0  0  0  0  0  0  0  0
    0.1312    0.6399   -2.7714 C   0  0  0  0  0  0  0  0  0  0  0  0
   -1.1447    1.0997   -2.4471 C   0  0  0  0  0  0  0  0  0  0  0  0
   -1.8365    0.5803   -1.3319 C   0  0  0  0  0  0  0  0  0  0  0  0
   -1.2569   -0.4007   -0.5196 C   0  0  0  0  0  0  0  0  0  0  0  0
    0.0235   -0.8168   -0.8410 C   0  0  0  0  0  0  0  0  0  0  0  0
    1.0271   -1.4195    0.0456 C   0  0  0  0  0  0  0  0  0  0  0  0
    0.7474   -1.9102    1.1257 O   0  0  0  0  0  0  0  0  0  0  0  0
    1.6467    2.2711    1.1691 H   0  0  0  0  0  0  0  0  0  0  0  0
    1.7612    1.0940    2.4989 H   0  0  0  0  0  0  0  0  0  0  0  0
    0.8844    0.7235    1.0323 H   0  0  0  0  0  0  0  0  0  0  0  0
    4.0198    2.5265    1.5481 H   0  0  0  0  0  0  0  0  0  0  0  0
    6.2694    1.8718    0.9165 H   0  0  0  0  0  0  0  0  0  0  0  0
    7.6904    0.3490   -0.0999 H   0  0  0  0  0  0  0  0  0  0  0  0
    7.2140   -1.1232   -0.7341 H   0  0  0  0  0  0  0  0  0  0  0  0
    5.9282   -2.6419   -0.6521 H   0  0  0  0  0  0  0  0  0  0  0  0
    4.3250   -2.6427   -1.3703 H   0  0  0  0  0  0  0  0  0  0  0  0
    4.5517   -3.0739    0.3458 H   0  0  0  0  0  0  0  0  0  0  0  0
    0.7147    1.0938   -3.5678 H   0  0  0  0  0  0  0  0  0  0  0  0
   -1.5834    1.9149   -3.0191 H   0  0  0  0  0  0  0  0  0  0  0  0
   -2.8032    1.0022   -1.0614 H   0  0  0  0  0  0  0  0  0  0  0  0
   -1.7372   -0.7269    0.3986 H   0  0  0  0  0  0  0  0  0  0  0  0
  1  2  1  0  0  0  0
  1 21  1  0  0  0  0
  1 22  1  0  0  0  0
  1 23  1  0  0  0  0
  2  3  1  0  0  0  0
  2  9  2  0  0  0  0
  3  4  2  0  0  0  0
  3 24  1  0  0  0  0
  4  5  1  0  0  0  0
  4 25  1  0  0  0  0
  5  6  1  0  0  0  0
  5  7  2  0  0  0  0
  6 26  1  0  0  0  0
  6 27  1  0  0  0  0
  7  8  1  0  0  0  0
  7  9  1  0  0  0  0
  8 28  1  0  0  0  0
  8 29  1  0  0  0  0
  8 30  1  0  0  0  0
  9 10  1  0  0  0  0
 10 11  1  0  0  0  0
 10 19  1  0  0  0  0
 11 12  2  0  0  0  0
 11 13  1  0  0  0  0
 13 14  1  0  0  0  0
 13 18  2  0  0  0  0
 14 15  2  0  0  0  0
 14 31  1  0  0  0  0
 15 16  1  0  0  0  0
 15 32  1  0  0  0  0
 16 17  2  0  0  0  0
 16 33  1  0  0  0  0
 17 18  1  0  0  0  0
 17 34  1  0  0  0  0
 18 19  1  0  0  0  0
 19 20  2  0  0  0  0
M  END
>  <Energy>
86.1788

$$$$

 OpenBabel04232614443D

 37 39  0  0  1  0  0  0  0  0999 V2000
    1.9713    0.3602   -1.2400 C   0  0  0  0  0  0  0  0  0  0  0  0
    2.5651   -0.0400    0.1138 C   0  0  0  0  0  0  0  0  0  0  0  0
    1.5415    0.1594    1.2346 C   0  0  0  0  0  0  0  0  0  0  0  0
    3.1036   -1.4609    0.1034 C   0  0  0  0  0  0  0  0  0  0  0  0
    4.4576   -1.7003    0.3764 C   0  0  0  0  0  0  0  0  0  0  0  0
    4.9692   -3.0023    0.3762 C   0  0  0  0  0  0  0  0  0  0  0  0
    4.1413   -4.1016    0.1013 C   0  0  0  0  0  0  0  0  0  0  0  0
    4.6844   -5.5133    0.0736 C   0  0  3  0  0  0  0  0  0  0  0  0
    5.2099   -5.9122    1.3475 N   0  0  0  0  0  0  0  0  0  0  0  0
    5.8941   -7.0949    1.4735 C   0  0  0  0  0  0  0  0  0  0  0  0
    6.0424   -7.6512    2.5540 O   0  0  0  0  0  0  0  0  0  0  0  0
    6.4342   -7.6614    0.2257 C   0  0  0  0  0  0  0  0  0  0  0  0
    7.0306   -8.9179    0.1645 C   0  0  0  0  0  0  0  0  0  0  0  0
    7.5011   -9.3682   -1.0635 C   0  0  0  0  0  0  0  0  0  0  0  0
    7.3463   -8.5433   -2.1688 C   0  0  0  0  0  0  0  0  0  0  0  0
    6.7570   -7.3236   -2.1296 N   0  0  0  0  0  0  0  0  0  0  0  0
    6.3125   -6.8942   -0.9318 C   0  0  0  0  0  0  0  0  0  0  0  0
    5.7545   -5.6182   -0.8817 N   0  0  0  0  0  0  0  0  0  0  0  0
    2.7856   -3.8611   -0.1662 C   0  0  0  0  0  0  0  0  0  0  0  0
    2.2748   -2.5593   -0.1652 C   0  0  0  0  0  0  0  0  0  0  0  0
    1.6269    1.4004   -1.2170 H   0  0  0  0  0  0  0  0  0  0  0  0
    1.1161   -0.2654   -1.5173 H   0  0  0  0  0  0  0  0  0  0  0  0
    2.7204    0.2740   -2.0356 H   0  0  0  0  0  0  0  0  0  0  0  0
    3.3977    0.6484    0.3113 H   0  0  0  0  0  0  0  0  0  0  0  0
    0.6729   -0.4983    1.1198 H   0  0  0  0  0  0  0  0  0  0  0  0
    1.1779    1.1927    1.2476 H   0  0  0  0  0  0  0  0  0  0  0  0
    1.9901   -0.0493    2.2120 H   0  0  0  0  0  0  0  0  0  0  0  0
    5.1315   -0.8728    0.5887 H   0  0  0  0  0  0  0  0  0  0  0  0
    6.0276   -3.1601    0.5822 H   0  0  0  0  0  0  0  0  0  0  0  0
    3.8759   -6.2129   -0.1825 H   0  0  0  0  0  0  0  0  0  0  0  0
    4.7547   -5.5835    2.1863 H   0  0  0  0  0  0  0  0  0  0  0  0
    7.1269   -9.5279    1.0580 H   0  0  0  0  0  0  0  0  0  0  0  0
    7.9809  -10.3366   -1.1586 H   0  0  0  0  0  0  0  0  0  0  0  0
    7.7060   -8.8479   -3.1469 H   0  0  0  0  0  0  0  0  0  0  0  0
    5.5527   -5.3016   -1.8239 H   0  0  0  0  0  0  0  0  0  0  0  0
    2.1100   -4.6857   -0.3842 H   0  0  0  0  0  0  0  0  0  0  0  0
    1.2183   -2.4117   -0.3789 H   0  0  0  0  0  0  0  0  0  0  0  0
  1  2  1  0  0  0  0
  1 21  1  0  0  0  0
  1 22  1  0  0  0  0
  1 23  1  0  0  0  0
  2  3  1  0  0  0  0
  2  4  1  0  0  0  0
  2 24  1  0  0  0  0
  3 25  1  0  0  0  0
  3 26  1  0  0  0  0
  3 27  1  0  0  0  0
  4  5  1  0  0  0  0
  4 20  2  0  0  0  0
  5  6  2  0  0  0  0
  5 28  1  0  0  0  0
  6  7  1  0  0  0  0
  6 29  1  0  0  0  0
  7  8  1  0  0  0  0
  7 19  2  0  0  0  0
  8  9  1  0  0  0  0
  8 18  1  0  0  0  0
  8 30  1  0  0  0  0
  9 10  1  0  0  0  0
  9 31  1  0  0  0  0
 10 11  2  0  0  0  0
 10 12  1  0  0  0  0
 12 13  1  0  0  0  0
 12 17  2  0  0  0  0
 13 14  2  0  0  0  0
 13 32  1  0  0  0  0
 14 15  1  0  0  0  0
 14 33  1  0  0  0  0
 15 16  2  0  0  0  0
 15 34  1  0  0  0  0
 16 17  1  0  0  0  0
 17 18  1  0  0  0  0
 18 35  1  0  0  0  0
 19 20  1  0  0  0  0
 19 36  1  0  0  0  0
 20 37  1  0  0  0  0
M  END
>  <Energy>
-66.314

$$$$

 OpenBabel04232614443D

 28 28  0  0  1  0  0  0  0  0999 V2000
    3.0813    0.4490    1.2644 C   0  0  0  0  0  0  0  0  0  0  0  0
    2.5265   -0.0308   -0.1010 C   0  0  1  0  0  0  0  0  0  0  0  0
    1.0058   -0.0697    0.0904 C   0  0  0  0  0  0  0  0  0  0  0  0
    0.1485    0.9436   -0.0822 C   0  0  0  0  0  0  0  0  0  0  0  0
   -1.5399    0.7690    0.1487 Cl  0  0  0  0  0  0  0  0  0  0  0  0
    3.0011    0.9540   -1.2144 C   0  0  0  0  0  0  0  0  0  0  0  0
    2.7242    0.5172   -2.6833 C   0  0  1  0  0  0  0  0  0  0  0  0
    1.2511    0.7016   -3.0880 C   0  0  0  0  0  0  0  0  0  0  0  0
    3.6699    1.6616   -3.7374 Cl  0  0  0  0  0  0  0  0  0  0  0  0
    3.2373   -0.9258   -2.9112 C   0  0  2  0  0  0  0  0  0  0  0  0
    2.8486   -1.5714   -4.5449 Cl  0  0  0  0  0  0  0  0  0  0  0  0
    2.6962   -1.9050   -1.8617 C   0  0  0  0  0  0  0  0  0  0  0  0
    3.0418   -1.4736   -0.4316 C   0  0  1  0  0  0  0  0  0  0  0  0
    4.8209   -1.6529   -0.1973 Cl  0  0  0  0  0  0  0  0  0  0  0  0
    4.1664    0.5930    1.2462 H   0  0  0  0  0  0  0  0  0  0  0  0
    2.8542   -0.2706    2.0607 H   0  0  0  0  0  0  0  0  0  0  0  0
    2.6477    1.4134    1.5566 H   0  0  0  0  0  0  0  0  0  0  0  0
    0.5927   -1.0128    0.4549 H   0  0  0  0  0  0  0  0  0  0  0  0
    0.4085    1.9465   -0.3957 H   0  0  0  0  0  0  0  0  0  0  0  0
    4.0889    1.0738   -1.1010 H   0  0  0  0  0  0  0  0  0  0  0  0
    2.5938    1.9582   -1.0374 H   0  0  0  0  0  0  0  0  0  0  0  0
    0.8829    1.6939   -2.8119 H   0  0  0  0  0  0  0  0  0  0  0  0
    0.5982   -0.0466   -2.6307 H   0  0  0  0  0  0  0  0  0  0  0  0
    1.1077    0.6102   -4.1715 H   0  0  0  0  0  0  0  0  0  0  0  0
    4.3320   -0.9282   -2.8702 H   0  0  0  0  0  0  0  0  0  0  0  0
    3.1033   -2.9099   -2.0462 H   0  0  0  0  0  0  0  0  0  0  0  0
    1.6091   -2.0066   -1.9598 H   0  0  0  0  0  0  0  0  0  0  0  0
    2.6023   -2.1952    0.2675 H   0  0  0  0  0  0  0  0  0  0  0  0
  1 15  1  0  0  0  0
  1 16  1  0  0  0  0
  1 17  1  0  0  0  0
  2  6  1  0  0  0  0
  2 13  1  0  0  0  0
  2  3  1  1  0  0  0
  2  1  1  0  0  0  0
  3  4  2  0  0  0  0
  3 18  1  0  0  0  0
  4  5  1  0  0  0  0
  4 19  1  0  0  0  0
  6  7  1  0  0  0  0
  6 20  1  0  0  0  0
  6 21  1  0  0  0  0
  7  8  1  0  0  0  0
  7  9  1  6  0  0  0
  7 10  1  0  0  0  0
  8 22  1  0  0  0  0
  8 23  1  0  0  0  0
  8 24  1  0  0  0  0
 10 12  1  0  0  0  0
 10 11  1  0  0  0  0
 10 25  1  1  0  0  0
 12 13  1  0  0  0  0
 12 26  1  0  0  0  0
 12 27  1  0  0  0  0
 13 14  1  0  0  0  0
 13 28  1  1  0  0  0
M  END
>  <Energy>
45.4835

$$$$

 OpenBabel04232614443D

 35 38  0  0  0  0  0  0  0  0999 V2000
    1.7332   -0.2901   -0.0817 F   0  0  0  0  0  0  0  0  0  0  0  0
    3.0537   -0.0665   -0.0707 C   0  0  0  0  0  0  0  0  0  0  0  0
    3.9292   -1.1523   -0.0376 C   0  0  0  0  0  0  0  0  0  0  0  0
    5.3100   -0.9367   -0.0263 C   0  0  0  0  0  0  0  0  0  0  0  0
    5.7913    0.3698   -0.0516 C   0  0  0  0  0  0  0  0  0  0  0  0
    4.9007    1.4450   -0.0958 C   0  0  0  0  0  0  0  0  0  0  0  0
    3.5255    1.2418   -0.1000 C   0  0  0  0  0  0  0  0  0  0  0  0
    5.6025    2.7627   -0.1587 C   0  0  0  0  0  0  0  0  0  0  0  0
    7.0934    2.3832   -0.1176 C   0  0  0  0  0  0  0  0  0  0  0  0
    7.1731    0.8722   -0.0724 C   0  0  0  0  0  0  0  0  0  0  0  0
    8.2494    0.0684   -0.0817 C   0  0  0  0  0  0  0  0  0  0  0  0
    9.6936    0.3922   -0.1686 C   0  0  0  0  0  0  0  0  0  0  0  0
   10.2215    1.4760    0.5335 C   0  0  0  0  0  0  0  0  0  0  0  0
   11.5883    1.6741    0.5196 C   0  0  0  0  0  0  0  0  0  0  0  0
   12.4609    0.8647   -0.1095 N   0  0  0  0  0  0  0  0  0  0  0  0
   11.9732   -0.1916   -0.7765 C   0  0  0  0  0  0  0  0  0  0  0  0
   12.8819   -1.0432   -1.3939 C   0  0  0  0  0  0  0  0  0  0  0  0
   12.4746   -2.1665   -2.1152 C   0  0  0  0  0  0  0  0  0  0  0  0
   11.1232   -2.4434   -2.2409 C   0  0  0  0  0  0  0  0  0  0  0  0
   10.1918   -1.6059   -1.6273 C   0  0  0  0  0  0  0  0  0  0  0  0
   10.5904   -0.4764   -0.8626 C   0  0  0  0  0  0  0  0  0  0  0  0
    3.5285   -2.1614   -0.0254 H   0  0  0  0  0  0  0  0  0  0  0  0
    5.9797   -1.7896   -0.0069 H   0  0  0  0  0  0  0  0  0  0  0  0
    2.8266    2.0697   -0.1319 H   0  0  0  0  0  0  0  0  0  0  0  0
    5.3333    3.3891    0.6985 H   0  0  0  0  0  0  0  0  0  0  0  0
    5.3571    3.2924   -1.0849 H   0  0  0  0  0  0  0  0  0  0  0  0
    7.5381    2.8244    0.7801 H   0  0  0  0  0  0  0  0  0  0  0  0
    7.6136    2.7864   -0.9939 H   0  0  0  0  0  0  0  0  0  0  0  0
    8.0785   -1.0039   -0.0164 H   0  0  0  0  0  0  0  0  0  0  0  0
    9.6022    2.1478    1.1130 H   0  0  0  0  0  0  0  0  0  0  0  0
   12.0379    2.5083    1.0514 H   0  0  0  0  0  0  0  0  0  0  0  0
   13.9445   -0.8277   -1.3042 H   0  0  0  0  0  0  0  0  0  0  0  0
   13.2144   -2.8132   -2.5794 H   0  0  0  0  0  0  0  0  0  0  0  0
   10.7900   -3.3062   -2.8119 H   0  0  0  0  0  0  0  0  0  0  0  0
    9.1391   -1.8439   -1.7594 H   0  0  0  0  0  0  0  0  0  0  0  0
  1  2  1  0  0  0  0
  2  3  1  0  0  0  0
  2  7  2  0  0  0  0
  3  4  2  0  0  0  0
  3 22  1  0  0  0  0
  4  5  1  0  0  0  0
  4 23  1  0  0  0  0
  5  6  2  0  0  0  0
  5 10  1  0  0  0  0
  6  7  1  0  0  0  0
  6  8  1  0  0  0  0
  7 24  1  0  0  0  0
  8  9  1  0  0  0  0
  8 25  1  0  0  0  0
  8 26  1  0  0  0  0
  9 10  1  0  0  0  0
  9 27  1  0  0  0  0
  9 28  1  0  0  0  0
 10 11  2  0  0  0  0
 11 12  1  0  0  0  0
 11 29  1  0  0  0  0
 12 13  1  0  0  0  0
 12 21  2  0  0  0  0
 13 14  2  0  0  0  0
 13 30  1  0  0  0  0
 14 15  1  0  0  0  0
 14 31  1  0  0  0  0
 15 16  2  0  0  0  0
 16 17  1  0  0  0  0
 16 21  1  0  0  0  0
 17 18  2  0  0  0  0
 17 32  1  0  0  0  0
 18 19  1  0  0  0  0
 18 33  1  0  0  0  0
 19 20  2  0  0  0  0
 19 34  1  0  0  0  0
 20 21  1  0  0  0  0
 20 35  1  0  0  0  0
M  END
>  <Energy>
66.4178

$$$$

 OpenBabel04232614443D

 30 32  0  0  0  0  0  0  0  0999 V2000
    1.3908   -0.4966   -0.0436 C   0  0  0  0  0  0  0  0  0  0  0  0
    2.8048   -0.2987   -0.0288 O   0  0  0  0  0  0  0  0  0  0  0  0
    3.2727    0.2415    1.1482 C   0  0  0  0  0  0  0  0  0  0  0  0
    2.8914   -0.3139    2.3791 C   0  0  0  0  0  0  0  0  0  0  0  0
    3.3825    0.2106    3.5691 C   0  0  0  0  0  0  0  0  0  0  0  0
    4.2510    1.2954    3.5328 C   0  0  0  0  0  0  0  0  0  0  0  0
    4.6513    1.8439    2.3058 C   0  0  0  0  0  0  0  0  0  0  0  0
    5.6885    3.2325    2.3972 Cl  0  0  0  0  0  0  0  0  0  0  0  0
    4.1996    1.3115    1.0762 C   0  0  0  0  0  0  0  0  0  0  0  0
    4.6696    1.8273   -0.2371 C   0  0  0  0  0  0  0  0  0  0  0  0
    6.0633    1.8565   -0.5458 C   0  0  0  0  0  0  0  0  0  0  0  0
    6.5529    2.3183   -1.7757 C   0  0  0  0  0  0  0  0  0  0  0  0
    5.6188    2.7160   -2.6958 C   0  0  0  0  0  0  0  0  0  0  0  0
    5.7899    3.1781   -3.9968 N   0  0  0  0  0  0  0  0  0  0  0  0
    4.5279    3.4202   -4.5568 C   0  0  0  0  0  0  0  0  0  0  0  0
    4.2967    3.8128   -5.6862 O   0  0  0  0  0  0  0  0  0  0  0  0
    3.5830    3.1151   -3.5663 N   0  0  0  0  0  0  0  0  0  0  0  0
    4.2544    2.6838   -2.4267 C   0  0  0  0  0  0  0  0  0  0  0  0
    3.7518    2.2641   -1.2150 C   0  0  0  0  0  0  0  0  0  0  0  0
    1.0664   -0.5156   -1.0884 H   0  0  0  0  0  0  0  0  0  0  0  0
    0.8546    0.3188    0.4566 H   0  0  0  0  0  0  0  0  0  0  0  0
    1.1346   -1.4606    0.4062 H   0  0  0  0  0  0  0  0  0  0  0  0
    2.2284   -1.1735    2.4206 H   0  0  0  0  0  0  0  0  0  0  0  0
    3.0890   -0.2243    4.5212 H   0  0  0  0  0  0  0  0  0  0  0  0
    4.6210    1.7122    4.4670 H   0  0  0  0  0  0  0  0  0  0  0  0
    6.7839    1.5065    0.1932 H   0  0  0  0  0  0  0  0  0  0  0  0
    7.6148    2.3428   -1.9835 H   0  0  0  0  0  0  0  0  0  0  0  0
    6.6570    3.3050   -4.4898 H   0  0  0  0  0  0  0  0  0  0  0  0
    2.5882    3.1800   -3.7016 H   0  0  0  0  0  0  0  0  0  0  0  0
    2.6844    2.2502   -1.0321 H   0  0  0  0  0  0  0  0  0  0  0  0
  1  2  1  0  0  0  0
  1 20  1  0  0  0  0
  1 21  1  0  0  0  0
  1 22  1  0  0  0  0
  2  3  1  0  0  0  0
  3  4  1  0  0  0  0
  3  9  2  0  0  0  0
  4  5  2  0  0  0  0
  4 23  1  0  0  0  0
  5  6  1  0  0  0  0
  5 24  1  0  0  0  0
  6  7  2  0  0  0  0
  6 25  1  0  0  0  0
  7  8  1  0  0  0  0
  7  9  1  0  0  0  0
  9 10  1  0  0  0  0
 10 11  1  0  0  0  0
 10 19  2  0  0  0  0
 11 12  2  0  0  0  0
 11 26  1  0  0  0  0
 12 13  1  0  0  0  0
 12 27  1  0  0  0  0
 13 14  1  0  0  0  0
 13 18  2  0  0  0  0
 14 15  1  0  0  0  0
 14 28  1  0  0  0  0
 15 16  2  0  0  0  0
 15 17  1  0  0  0  0
 17 18  1  0  0  0  0
 17 29  1  0  0  0  0
 18 19  1  0  0  0  0
 19 30  1  0  0  0  0
M  END
>  <Energy>
11.2551

$$$$

 OpenBabel04232614443D

 32 35  0  0  0  0  0  0  0  0999 V2000
    2.1391    0.1012    2.2027 N   0  0  0  0  0  0  0  0  0  0  0  0
    2.9634    0.1658    1.1144 C   0  0  0  0  0  0  0  0  0  0  0  0
    3.3482   -0.9748    0.5785 N   0  0  0  0  0  0  0  0  0  0  0  0
    4.1431   -0.9511   -0.5558 C   0  0  0  0  0  0  0  0  0  0  0  0
    4.5605    0.1801   -1.1497 C   0  0  0  0  0  0  0  0  0  0  0  0
    4.1851    1.3776   -0.5912 N   0  0  0  0  0  0  0  0  0  0  0  0
    4.4444    2.6656   -0.9520 C   0  0  0  0  0  0  0  0  0  0  0  0
    3.7858    3.4567   -0.0277 C   0  0  0  0  0  0  0  0  0  0  0  0
    3.7975    4.9206   -0.0450 C   0  0  0  0  0  0  0  0  0  0  0  0
    4.3574    5.6025   -1.1363 C   0  0  0  0  0  0  0  0  0  0  0  0
    4.4770    6.9905   -1.1455 C   0  0  0  0  0  0  0  0  0  0  0  0
    4.0502    7.7444   -0.0551 C   0  0  0  0  0  0  0  0  0  0  0  0
    4.2635    9.1289   -0.0336 C   0  0  0  0  0  0  0  0  0  0  0  0
    3.8651    9.8893    1.0608 C   0  0  0  0  0  0  0  0  0  0  0  0
    3.2071    9.2733    2.1237 C   0  0  0  0  0  0  0  0  0  0  0  0
    2.9763    7.8922    2.1067 C   0  0  0  0  0  0  0  0  0  0  0  0
    3.4206    7.0963    1.0348 C   0  0  0  0  0  0  0  0  0  0  0  0
    3.2944    5.6835    1.0207 C   0  0  0  0  0  0  0  0  0  0  0  0
    3.1527    2.6657    0.9181 N   0  0  0  0  0  0  0  0  0  0  0  0
    3.4030    1.4255    0.5325 C   0  0  0  0  0  0  0  0  0  0  0  0
    2.0858   -0.7986    2.6602 H   0  0  0  0  0  0  0  0  0  0  0  0
    2.0639    0.9319    2.7762 H   0  0  0  0  0  0  0  0  0  0  0  0
    4.4022   -1.9186   -0.9744 H   0  0  0  0  0  0  0  0  0  0  0  0
    5.1703    0.1965   -2.0454 H   0  0  0  0  0  0  0  0  0  0  0  0
    5.0587    2.8902   -1.8126 H   0  0  0  0  0  0  0  0  0  0  0  0
    4.7330    5.0672   -2.0016 H   0  0  0  0  0  0  0  0  0  0  0  0
    4.9368    7.4698   -2.0066 H   0  0  0  0  0  0  0  0  0  0  0  0
    4.7663    9.6241   -0.8631 H   0  0  0  0  0  0  0  0  0  0  0  0
    4.0701   10.9549    1.0855 H   0  0  0  0  0  0  0  0  0  0  0  0
    2.8843    9.8698    2.9735 H   0  0  0  0  0  0  0  0  0  0  0  0
    2.4622    7.4388    2.9505 H   0  0  0  0  0  0  0  0  0  0  0  0
    2.8302    5.1762    1.8666 H   0  0  0  0  0  0  0  0  0  0  0  0
  1  2  1  0  0  0  0
  1 21  1  0  0  0  0
  1 22  1  0  0  0  0
  2  3  2  0  0  0  0
  2 20  1  0  0  0  0
  3  4  1  0  0  0  0
  4  5  2  0  0  0  0
  4 23  1  0  0  0  0
  5  6  1  0  0  0  0
  5 24  1  0  0  0  0
  6  7  1  0  0  0  0
  6 20  1  0  0  0  0
  7  8  2  0  0  0  0
  7 25  1  0  0  0  0
  8  9  1  0  0  0  0
  8 19  1  0  0  0  0
  9 10  1  0  0  0  0
  9 18  2  0  0  0  0
 10 11  2  0  0  0  0
 10 26  1  0  0  0  0
 11 12  1  0  0  0  0
 11 27  1  0  0  0  0
 12 13  1  0  0  0  0
 12 17  2  0  0  0  0
 13 14  2  0  0  0  0
 13 28  1  0  0  0  0
 14 15  1  0  0  0  0
 14 29  1  0  0  0  0
 15 16  2  0  0  0  0
 15 30  1  0  0  0  0
 16 17  1  0  0  0  0
 16 31  1  0  0  0  0
 17 18  1  0  0  0  0
 18 32  1  0  0  0  0
 19 20  2  0  0  0  0
M  END
>  <Energy>
21.4974

$$$$

 OpenBabel04232614443D

 43 45  0  0  0  0  0  0  0  0999 V2000
   -2.4737   -0.0919    0.1403 C   0  0  0  0  0  0  0  0  0  0  0  0
   -0.9776   -0.0733    0.0816 C   0  0  0  0  0  0  0  0  0  0  0  0
   -0.2665   -1.2309   -0.1153 C   0  0  0  0  0  0  0  0  0  0  0  0
    1.1051   -1.1210   -0.2253 C   0  0  0  0  0  0  0  0  0  0  0  0
    1.8449   -2.2830   -0.4931 N   0  0  0  0  0  0  0  0  0  0  0  0
    3.1897   -2.0676   -1.0292 C   0  0  0  0  0  0  0  0  0  0  0  0
    3.6333   -3.3706   -1.7020 C   0  0  0  0  0  0  0  0  0  0  0  0
    3.5480   -4.5653   -0.7484 C   0  0  0  0  0  0  0  0  0  0  0  0
    2.1912   -4.6399   -0.0453 C   0  0  0  0  0  0  0  0  0  0  0  0
    1.8036   -3.2951    0.5708 C   0  0  0  0  0  0  0  0  0  0  0  0
    1.7103    0.0795   -0.1562 N   0  0  0  0  0  0  0  0  0  0  0  0
    0.9613    1.1733    0.0698 C   0  0  0  0  0  0  0  0  0  0  0  0
    1.6010    2.3929    0.2667 N   0  0  0  0  0  0  0  0  0  0  0  0
    2.8629    2.5809   -0.4423 C   0  0  0  0  0  0  0  0  0  0  0  0
    3.6756    3.6642    0.2714 C   0  0  0  0  0  0  0  0  0  0  0  0
    2.8740    4.9526    0.4496 C   0  0  0  0  0  0  0  0  0  0  0  0
    1.5206    4.6767    1.1002 C   0  0  0  0  0  0  0  0  0  0  0  0
    0.7511    3.5761    0.3656 C   0  0  0  0  0  0  0  0  0  0  0  0
   -0.3739    1.1233    0.1837 N   0  0  0  0  0  0  0  0  0  0  0  0
   -2.8624   -1.1115    0.2292 H   0  0  0  0  0  0  0  0  0  0  0  0
   -2.8844    0.3555   -0.7697 H   0  0  0  0  0  0  0  0  0  0  0  0
   -2.8231    0.4788    1.0065 H   0  0  0  0  0  0  0  0  0  0  0  0
   -0.7583   -2.1866   -0.2246 H   0  0  0  0  0  0  0  0  0  0  0  0
    3.8927   -1.7892   -0.2326 H   0  0  0  0  0  0  0  0  0  0  0  0
    3.1997   -1.2733   -1.7853 H   0  0  0  0  0  0  0  0  0  0  0  0
    4.6556   -3.2684   -2.0806 H   0  0  0  0  0  0  0  0  0  0  0  0
    2.9860   -3.5626   -2.5677 H   0  0  0  0  0  0  0  0  0  0  0  0
    4.3414   -4.4853    0.0039 H   0  0  0  0  0  0  0  0  0  0  0  0
    3.7244   -5.4934   -1.3042 H   0  0  0  0  0  0  0  0  0  0  0  0
    2.2147   -5.4153    0.7284 H   0  0  0  0  0  0  0  0  0  0  0  0
    1.4252   -4.9345   -0.7741 H   0  0  0  0  0  0  0  0  0  0  0  0
    2.5010   -3.0315    1.3774 H   0  0  0  0  0  0  0  0  0  0  0  0
    0.8103   -3.3955    1.0230 H   0  0  0  0  0  0  0  0  0  0  0  0
    2.6691    2.8813   -1.4805 H   0  0  0  0  0  0  0  0  0  0  0  0
    3.4771    1.6737   -0.4729 H   0  0  0  0  0  0  0  0  0  0  0  0
    4.5935    3.8727   -0.2894 H   0  0  0  0  0  0  0  0  0  0  0  0
    3.9786    3.2922    1.2585 H   0  0  0  0  0  0  0  0  0  0  0  0
    2.7210    5.4280   -0.5265 H   0  0  0  0  0  0  0  0  0  0  0  0
    3.4424    5.6580    1.0665 H   0  0  0  0  0  0  0  0  0  0  0  0
    0.9247    5.5958    1.1269 H   0  0  0  0  0  0  0  0  0  0  0  0
    1.6809    4.3674    2.1412 H   0  0  0  0  0  0  0  0  0  0  0  0
    0.4588    3.9208   -0.6349 H   0  0  0  0  0  0  0  0  0  0  0  0
   -0.1665    3.3891    0.9360 H   0  0  0  0  0  0  0  0  0  0  0  0
  1  2  1  0  0  0  0
  1 20  1  0  0  0  0
  1 21  1  0  0  0  0
  1 22  1  0  0  0  0
  2  3  1  0  0  0  0
  2 19  2  0  0  0  0
  3  4  2  0  0  0  0
  3 23  1  0  0  0  0
  4  5  1  0  0  0  0
  4 11  1  0  0  0  0
  5  6  1  0  0  0  0
  5 10  1  0  0  0  0
  6  7  1  0  0  0  0
  6 24  1  0  0  0  0
  6 25  1  0  0  0  0
  7  8  1  0  0  0  0
  7 26  1  0  0  0  0
  7 27  1  0  0  0  0
  8  9  1  0  0  0  0
  8 28  1  0  0  0  0
  8 29  1  0  0  0  0
  9 10  1  0  0  0  0
  9 30  1  0  0  0  0
  9 31  1  0  0  0  0
 10 32  1  0  0  0  0
 10 33  1  0  0  0  0
 11 12  2  0  0  0  0
 12 13  1  0  0  0  0
 12 19  1  0  0  0  0
 13 14  1  0  0  0  0
 13 18  1  0  0  0  0
 14 15  1  0  0  0  0
 14 34  1  0  0  0  0
 14 35  1  0  0  0  0
 15 16  1  0  0  0  0
 15 36  1  0  0  0  0
 15 37  1  0  0  0  0
 16 17  1  0  0  0  0
 16 38  1  0  0  0  0
 16 39  1  0  0  0  0
 17 18  1  0  0  0  0
 17 40  1  0  0  0  0
 17 41  1  0  0  0  0
 18 42  1  0  0  0  0
 18 43  1  0  0  0  0
M  END
>  <Energy>
-101.885

$$$$

 OpenBabel04232614443D

 35 38  0  0  0  0  0  0  0  0999 V2000
    2.8064    1.0068   -0.2957 C   0  0  0  0  0  0  0  0  0  0  0  0
    3.5767    0.5974    0.8295 O   0  0  0  0  0  0  0  0  0  0  0  0
    4.3120   -0.5493    0.6803 C   0  0  0  0  0  0  0  0  0  0  0  0
    5.2847   -0.7582    1.6560 C   0  0  0  0  0  0  0  0  0  0  0  0
    6.1169   -1.8904    1.6286 C   0  0  0  0  0  0  0  0  0  0  0  0
    5.9426   -2.8709    0.6250 C   0  0  0  0  0  0  0  0  0  0  0  0
    6.5590   -4.1417    0.2972 C   0  0  0  0  0  0  0  0  0  0  0  0
    5.8973   -4.6277   -0.8296 C   0  0  0  0  0  0  0  0  0  0  0  0
    4.9274   -3.7129   -1.1607 N   0  0  0  0  0  0  0  0  0  0  0  0
    4.9459   -2.6346   -0.3206 C   0  0  0  0  0  0  0  0  0  0  0  0
    4.1329   -1.4908   -0.3334 C   0  0  0  0  0  0  0  0  0  0  0  0
    6.0162   -5.8337   -1.6136 C   0  0  0  0  0  0  0  0  0  0  0  0
    5.1096   -6.2422   -2.3338 O   0  0  0  0  0  0  0  0  0  0  0  0
    7.2016   -6.5092   -1.5987 N   0  0  0  0  0  0  0  0  0  0  0  0
    8.4450   -5.9219   -1.1773 C   0  0  0  0  0  0  0  0  0  0  0  0
    8.5019   -5.7527    0.3139 C   0  0  0  0  0  0  0  0  0  0  0  0
    9.4713   -6.4802    1.0331 C   0  0  0  0  0  0  0  0  0  0  0  0
    9.5822   -6.3506    2.4135 C   0  0  0  0  0  0  0  0  0  0  0  0
    8.7192   -5.5009    3.0932 C   0  0  0  0  0  0  0  0  0  0  0  0
    7.7391   -4.7894    2.3931 C   0  0  0  0  0  0  0  0  0  0  0  0
    7.6155   -4.8916    0.9975 C   0  0  0  0  0  0  0  0  0  0  0  0
    2.3131    1.9496   -0.0403 H   0  0  0  0  0  0  0  0  0  0  0  0
    2.0208    0.2818   -0.5327 H   0  0  0  0  0  0  0  0  0  0  0  0
    3.4501    1.1890   -1.1630 H   0  0  0  0  0  0  0  0  0  0  0  0
    5.4082   -0.0259    2.4511 H   0  0  0  0  0  0  0  0  0  0  0  0
    6.8810   -1.9964    2.3918 H   0  0  0  0  0  0  0  0  0  0  0  0
    4.2845   -3.8417   -1.9306 H   0  0  0  0  0  0  0  0  0  0  0  0
    3.3801   -1.3796   -1.1036 H   0  0  0  0  0  0  0  0  0  0  0  0
    7.2239   -7.2821   -2.2483 H   0  0  0  0  0  0  0  0  0  0  0  0
    8.5900   -4.9587   -1.6807 H   0  0  0  0  0  0  0  0  0  0  0  0
    9.2389   -6.5903   -1.5284 H   0  0  0  0  0  0  0  0  0  0  0  0
   10.1449   -7.1604    0.5156 H   0  0  0  0  0  0  0  0  0  0  0  0
   10.3331   -6.9182    2.9567 H   0  0  0  0  0  0  0  0  0  0  0  0
    8.7954   -5.4003    4.1729 H   0  0  0  0  0  0  0  0  0  0  0  0
    7.0552   -4.1731    2.9690 H   0  0  0  0  0  0  0  0  0  0  0  0
  1  2  1  0  0  0  0
  1 22  1  0  0  0  0
  1 23  1  0  0  0  0
  1 24  1  0  0  0  0
  2  3  1  0  0  0  0
  3  4  1  0  0  0  0
  3 11  2  0  0  0  0
  4  5  2  0  0  0  0
  4 25  1  0  0  0  0
  5  6  1  0  0  0  0
  5 26  1  0  0  0  0
  6  7  1  0  0  0  0
  6 10  2  0  0  0  0
  7  8  2  0  0  0  0
  7 21  1  0  0  0  0
  8  9  1  0  0  0  0
  8 12  1  0  0  0  0
  9 10  1  0  0  0  0
  9 27  1  0  0  0  0
 10 11  1  0  0  0  0
 11 28  1  0  0  0  0
 12 13  2  0  0  0  0
 12 14  1  0  0  0  0
 14 15  1  0  0  0  0
 14 29  1  0  0  0  0
 15 16  1  0  0  0  0
 15 30  1  0  0  0  0
 15 31  1  0  0  0  0
 16 17  1  0  0  0  0
 16 21  2  0  0  0  0
 17 18  2  0  0  0  0
 17 32  1  0  0  0  0
 18 19  1  0  0  0  0
 18 33  1  0  0  0  0
 19 20  2  0  0  0  0
 19 34  1  0  0  0  0
 20 21  1  0  0  0  0
 20 35  1  0  0  0  0
M  END
>  <Energy>
-1.1967

$$$$

 OpenBabel04232614443D

 30 32  0  0  0  0  0  0  0  0999 V2000
    1.6451    2.2799    0.4442 C   0  0  0  0  0  0  0  0  0  0  0  0
    2.8167    1.4915    0.2353 O   0  0  0  0  0  0  0  0  0  0  0  0
    3.3224    1.6064   -1.0145 C   0  0  0  0  0  0  0  0  0  0  0  0
    3.2356    2.7223   -1.8882 C   0  0  0  0  0  0  0  0  0  0  0  0
    3.9601    2.4133   -3.0127 C   0  0  0  0  0  0  0  0  0  0  0  0
    4.4793    1.1588   -2.8415 N   0  0  0  0  0  0  0  0  0  0  0  0
    4.0992    0.6308   -1.6213 C   0  0  0  0  0  0  0  0  0  0  0  0
    4.6452   -0.6470   -1.3261 C   0  0  0  0  0  0  0  0  0  0  0  0
    4.1286   -1.6267   -0.5658 C   0  0  0  0  0  0  0  0  0  0  0  0
    5.0138   -2.8292   -0.3000 C   0  0  0  0  0  0  0  0  0  0  0  0
    6.0734   -3.1054   -0.8270 O   0  0  0  0  0  0  0  0  0  0  0  0
    4.3602   -3.5456    0.6881 N   0  0  0  0  0  0  0  0  0  0  0  0
    3.1424   -2.9583    1.0146 C   0  0  0  0  0  0  0  0  0  0  0  0
    2.2446   -3.4081    1.9642 C   0  0  0  0  0  0  0  0  0  0  0  0
    1.0578   -2.6889    2.1083 C   0  0  0  0  0  0  0  0  0  0  0  0
    0.7841   -1.6089    1.2589 C   0  0  0  0  0  0  0  0  0  0  0  0
   -0.3732   -0.9481    1.3971 F   0  0  0  0  0  0  0  0  0  0  0  0
    1.6858   -1.1969    0.2807 C   0  0  0  0  0  0  0  0  0  0  0  0
    2.9103   -1.8272    0.2197 C   0  0  0  0  0  0  0  0  0  0  0  0
    1.1292    1.8924    1.3297 H   0  0  0  0  0  0  0  0  0  0  0  0
    0.9436    2.2025   -0.3973 H   0  0  0  0  0  0  0  0  0  0  0  0
    1.9092    3.3232    0.6304 H   0  0  0  0  0  0  0  0  0  0  0  0
    2.7290    3.6603   -1.7120 H   0  0  0  0  0  0  0  0  0  0  0  0
    4.1688    2.9847   -3.9084 H   0  0  0  0  0  0  0  0  0  0  0  0
    5.0754    0.6909   -3.5126 H   0  0  0  0  0  0  0  0  0  0  0  0
    5.6296   -0.8422   -1.7558 H   0  0  0  0  0  0  0  0  0  0  0  0
    4.7297   -4.3999    1.0748 H   0  0  0  0  0  0  0  0  0  0  0  0
    2.4533   -4.2706    2.5864 H   0  0  0  0  0  0  0  0  0  0  0  0
    0.3307   -2.9646    2.8662 H   0  0  0  0  0  0  0  0  0  0  0  0
    1.4224   -0.3935   -0.3910 H   0  0  0  0  0  0  0  0  0  0  0  0
  1  2  1  0  0  0  0
  1 20  1  0  0  0  0
  1 21  1  0  0  0  0
  1 22  1  0  0  0  0
  2  3  1  0  0  0  0
  3  4  1  0  0  0  0
  3  7  2  0  0  0  0
  4  5  2  0  0  0  0
  4 23  1  0  0  0  0
  5  6  1  0  0  0  0
  5 24  1  0  0  0  0
  6  7  1  0  0  0  0
  6 25  1  0  0  0  0
  7  8  1  0  0  0  0
  8  9  2  0  0  0  0
  8 26  1  0  0  0  0
  9 10  1  0  0  0  0
  9 19  1  0  0  0  0
 10 11  2  0  0  0  0
 10 12  1  0  0  0  0
 12 13  1  0  0  0  0
 12 27  1  0  0  0  0
 13 14  1  0  0  0  0
 13 19  2  0  0  0  0
 14 15  2  0  0  0  0
 14 28  1  0  0  0  0
 15 16  1  0  0  0  0
 15 29  1  0  0  0  0
 16 17  1  0  0  0  0
 16 18  2  0  0  0  0
 18 19  1  0  0  0  0
 18 30  1  0  0  0  0
M  END
>  <Energy>
26.9667

$$$$

 OpenBabel04232614443D

 32 35  0  0  0  0  0  0  0  0999 V2000
    0.9662   -0.0278    0.3347 N   0  0  0  0  0  0  0  0  0  0  0  0
    2.3619    0.0238    0.2597 C   0  0  0  0  0  0  0  0  0  0  0  0
    2.9597   -1.1820    0.2048 N   0  0  0  0  0  0  0  0  0  0  0  0
    4.3050   -1.2029    0.1232 C   0  0  0  0  0  0  0  0  0  0  0  0
    5.0943   -0.0686    0.1069 C   0  0  0  0  0  0  0  0  0  0  0  0
    4.4724    1.1798    0.1711 C   0  0  0  0  0  0  0  0  0  0  0  0
    5.2289    2.3606    0.1449 C   0  0  0  0  0  0  0  0  0  0  0  0
    4.6039    3.6075    0.1574 C   0  0  0  0  0  0  0  0  0  0  0  0
    3.2101    3.6965    0.2079 C   0  0  0  0  0  0  0  0  0  0  0  0
    2.5750    5.0129    0.0489 C   0  0  0  0  0  0  0  0  0  0  0  0
    2.2362    5.5381   -1.2773 C   0  0  0  0  0  0  0  0  0  0  0  0
    1.7704    6.7889   -1.4553 C   0  0  0  0  0  0  0  0  0  0  0  0
    1.5828    7.6344   -0.3295 C   0  0  0  0  0  0  0  0  0  0  0  0
    1.1870    8.8863   -0.2405 N   0  0  0  0  0  0  0  0  0  0  0  0
    1.1984    9.1733    1.0998 C   0  0  0  0  0  0  0  0  0  0  0  0
    1.5976    8.0829    1.8373 C   0  0  0  0  0  0  0  0  0  0  0  0
    1.8663    7.0965    0.9216 N   0  0  0  0  0  0  0  0  0  0  0  0
    2.3604    5.8064    1.1184 C   0  0  0  0  0  0  0  0  0  0  0  0
    2.4488    2.5254    0.2760 C   0  0  0  0  0  0  0  0  0  0  0  0
    3.0632    1.2493    0.2459 C   0  0  0  0  0  0  0  0  0  0  0  0
    0.7224   -1.0152    0.2915 H   0  0  0  0  0  0  0  0  0  0  0  0
    0.5465    0.4872   -0.4298 H   0  0  0  0  0  0  0  0  0  0  0  0
    4.7492   -2.1926    0.0649 H   0  0  0  0  0  0  0  0  0  0  0  0
    6.1727   -0.1642    0.0352 H   0  0  0  0  0  0  0  0  0  0  0  0
    6.3147    2.3211    0.0867 H   0  0  0  0  0  0  0  0  0  0  0  0
    5.2106    4.5084    0.0927 H   0  0  0  0  0  0  0  0  0  0  0  0
    2.3837    4.8834   -2.1311 H   0  0  0  0  0  0  0  0  0  0  0  0
    1.5357    7.1736   -2.4407 H   0  0  0  0  0  0  0  0  0  0  0  0
    0.9168   10.1534    1.4624 H   0  0  0  0  0  0  0  0  0  0  0  0
    1.7214    7.9330    2.8999 H   0  0  0  0  0  0  0  0  0  0  0  0
    2.5826    5.5160    2.1385 H   0  0  0  0  0  0  0  0  0  0  0  0
    1.3630    2.5977    0.3279 H   0  0  0  0  0  0  0  0  0  0  0  0
  1  2  1  0  0  0  0
  1 21  1  0  0  0  0
  1 22  1  0  0  0  0
  2  3  1  0  0  0  0
  2 20  2  0  0  0  0
  3  4  2  0  0  0  0
  4  5  1  0  0  0  0
  4 23  1  0  0  0  0
  5  6  2  0  0  0  0
  5 24  1  0  0  0  0
  6  7  1  0  0  0  0
  6 20  1  0  0  0  0
  7  8  2  0  0  0  0
  7 25  1  0  0  0  0
  8  9  1  0  0  0  0
  8 26  1  0  0  0  0
  9 10  1  0  0  0  0
  9 19  2  0  0  0  0
 10 11  1  0  0  0  0
 10 18  2  0  0  0  0
 11 12  2  0  0  0  0
 11 27  1  0  0  0  0
 12 13  1  0  0  0  0
 12 28  1  0  0  0  0
 13 14  2  0  0  0  0
 13 17  1  0  0  0  0
 14 15  1  0  0  0  0
 15 16  2  0  0  0  0
 15 29  1  0  0  0  0
 16 17  1  0  0  0  0
 16 30  1  0  0  0  0
 17 18  1  0  0  0  0
 18 31  1  0  0  0  0
 19 20  1  0  0  0  0
 19 32  1  0  0  0  0
M  END
>  <Energy>
14.8525

$$$$

 OpenBabel04232614443D

 32 34  0  0  0  0  0  0  0  0999 V2000
    0.9760    0.2253   -0.3853 C   0  0  0  0  0  0  0  0  0  0  0  0
    2.4651   -0.1085   -0.4314 C   0  0  0  0  0  0  0  0  0  0  0  0
    2.9124   -0.8280    0.8417 C   0  0  0  0  0  0  0  0  0  0  0  0
    2.7875   -0.8548   -1.6443 N   0  0  0  0  0  0  0  0  0  0  0  0
    3.2698   -0.3252   -2.8110 C   0  0  0  0  0  0  0  0  0  0  0  0
    3.3799   -1.3727   -3.7028 C   0  0  0  0  0  0  0  0  0  0  0  0
    3.8489   -1.2629   -5.0754 C   0  0  0  0  0  0  0  0  0  0  0  0
    3.7126   -0.0675   -5.7903 C   0  0  0  0  0  0  0  0  0  0  0  0
    4.1399    0.0353   -7.1216 C   0  0  0  0  0  0  0  0  0  0  0  0
    4.7077   -1.0822   -7.7619 C   0  0  0  0  0  0  0  0  0  0  0  0
    5.1454   -1.1327   -9.0741 N   0  0  0  0  0  0  0  0  0  0  0  0
    5.6045   -2.3265   -9.3468 C   0  0  0  0  0  0  0  0  0  0  0  0
    6.0615   -2.6729  -10.5612 N   0  0  0  0  0  0  0  0  0  0  0  0
    5.5603   -3.4549   -8.0579 S   0  0  0  0  0  0  0  0  0  0  0  0
    4.8444   -2.2671   -7.0403 C   0  0  0  0  0  0  0  0  0  0  0  0
    4.4276   -2.3795   -5.7011 C   0  0  0  0  0  0  0  0  0  0  0  0
    2.9416   -2.4934   -2.9604 C   0  0  0  0  0  0  0  0  0  0  0  0
    2.5692   -2.1798   -1.7159 N   0  0  0  0  0  0  0  0  0  0  0  0
    0.7456    0.8572    0.4794 H   0  0  0  0  0  0  0  0  0  0  0  0
    0.3633   -0.6812   -0.3176 H   0  0  0  0  0  0  0  0  0  0  0  0
    0.6675    0.7655   -1.2873 H   0  0  0  0  0  0  0  0  0  0  0  0
    3.0275    0.8312   -0.4976 H   0  0  0  0  0  0  0  0  0  0  0  0
    2.3711   -1.7695    0.9872 H   0  0  0  0  0  0  0  0  0  0  0  0
    2.7345   -0.2006    1.7216 H   0  0  0  0  0  0  0  0  0  0  0  0
    3.9826   -1.0603    0.8033 H   0  0  0  0  0  0  0  0  0  0  0  0
    3.4850    0.7303   -2.8970 H   0  0  0  0  0  0  0  0  0  0  0  0
    3.2535    0.8064   -5.3332 H   0  0  0  0  0  0  0  0  0  0  0  0
    4.0244    0.9650   -7.6699 H   0  0  0  0  0  0  0  0  0  0  0  0
    5.7895   -2.0545  -11.3172 H   0  0  0  0  0  0  0  0  0  0  0  0
    6.0491   -3.6554  -10.8054 H   0  0  0  0  0  0  0  0  0  0  0  0
    4.5595   -3.3198   -5.1742 H   0  0  0  0  0  0  0  0  0  0  0  0
    2.8626   -3.5248   -3.2783 H   0  0  0  0  0  0  0  0  0  0  0  0
  1  2  1  0  0  0  0
  1 19  1  0  0  0  0
  1 20  1  0  0  0  0
  1 21  1  0  0  0  0
  2  3  1  0  0  0  0
  2  4  1  0  0  0  0
  2 22  1  0  0  0  0
  3 23  1  0  0  0  0
  3 24  1  0  0  0  0
  3 25  1  0  0  0  0
  4  5  1  0  0  0  0
  4 18  1  0  0  0  0
  5  6  2  0  0  0  0
  5 26  1  0  0  0  0
  6  7  1  0  0  0  0
  6 17  1  0  0  0  0
  7  8  1  0  0  0  0
  7 16  2  0  0  0  0
  8  9  2  0  0  0  0
  8 27  1  0  0  0  0
  9 10  1  0  0  0  0
  9 28  1  0  0  0  0
 10 11  1  0  0  0  0
 10 15  2  0  0  0  0
 11 12  2  0  0  0  0
 12 13  1  0  0  0  0
 12 14  1  0  0  0  0
 13 29  1  0  0  0  0
 13 30  1  0  0  0  0
 14 15  1  0  0  0  0
 15 16  1  0  0  0  0
 16 31  1  0  0  0  0
 17 18  2  0  0  0  0
 17 32  1  0  0  0  0
M  END
>  <Energy>
-12.8233

$$$$

 OpenBabel04232614443D

 28 30  0  0  0  0  0  0  0  0999 V2000
    3.2562   -0.1467   -1.3519 C   0  0  0  0  0  0  0  0  0  0  0  0
    2.6099    0.1780   -0.0225 C   0  0  0  0  0  0  0  0  0  0  0  0
    1.5725   -0.4096    0.2919 O   0  0  0  0  0  0  0  0  0  0  0  0
    3.2475    1.1620    0.8501 C   0  0  0  0  0  0  0  0  0  0  0  0
    4.7120    1.9388    0.4074 S   0  0  0  0  0  0  0  0  0  0  0  0
    4.7995    2.7871    1.8766 C   0  0  0  0  0  0  0  0  0  0  0  0
    5.8594    3.5773    2.1433 N   0  0  0  0  0  0  0  0  0  0  0  0
    5.8189    4.1747    3.3561 C   0  0  0  0  0  0  0  0  0  0  0  0
    7.0260    4.9224    3.6922 C   0  0  0  0  0  0  0  0  0  0  0  0
    8.2057    5.1885    3.0225 C   0  0  0  0  0  0  0  0  0  0  0  0
    9.0311    5.9094    3.9193 C   0  0  0  0  0  0  0  0  0  0  0  0
    8.3027    6.0533    5.0757 C   0  0  0  0  0  0  0  0  0  0  0  0
    7.0863    5.4654    4.9478 O   0  0  0  0  0  0  0  0  0  0  0  0
    4.7626    4.0550    4.2526 C   0  0  0  0  0  0  0  0  0  0  0  0
    3.6829    3.2353    3.9297 C   0  0  0  0  0  0  0  0  0  0  0  0
    3.7071    2.5475    2.6996 C   0  0  0  0  0  0  0  0  0  0  0  0
    2.8231    1.5941    2.0956 C   0  0  0  0  0  0  0  0  0  0  0  0
    1.6996    1.1457    2.6989 N   0  0  0  0  0  0  0  0  0  0  0  0
    2.6569   -0.9009   -1.8720 H   0  0  0  0  0  0  0  0  0  0  0  0
    4.2560   -0.5607   -1.1972 H   0  0  0  0  0  0  0  0  0  0  0  0
    3.2992    0.7444   -1.9838 H   0  0  0  0  0  0  0  0  0  0  0  0
    8.4396    4.8722    2.0151 H   0  0  0  0  0  0  0  0  0  0  0  0
   10.0352    6.2704    3.7481 H   0  0  0  0  0  0  0  0  0  0  0  0
    8.4984    6.5156    6.0331 H   0  0  0  0  0  0  0  0  0  0  0  0
    4.7820    4.5685    5.2090 H   0  0  0  0  0  0  0  0  0  0  0  0
    2.8592    3.1115    4.6250 H   0  0  0  0  0  0  0  0  0  0  0  0
    1.4773    1.3326    3.6709 H   0  0  0  0  0  0  0  0  0  0  0  0
    1.1674    0.3703    2.2944 H   0  0  0  0  0  0  0  0  0  0  0  0
  1  2  1  0  0  0  0
  1 19  1  0  0  0  0
  1 20  1  0  0  0  0
  1 21  1  0  0  0  0
  2  3  2  0  0  0  0
  2  4  1  0  0  0  0
  4  5  1  0  0  0  0
  4 17  2  0  0  0  0
  5  6  1  0  0  0  0
  6  7  1  0  0  0  0
  6 16  2  0  0  0  0
  7  8  2  0  0  0  0
  8  9  1  0  0  0  0
  8 14  1  0  0  0  0
  9 10  2  0  0  0  0
  9 13  1  0  0  0  0
 10 11  1  0  0  0  0
 10 22  1  0  0  0  0
 11 12  2  0  0  0  0
 11 23  1  0  0  0  0
 12 13  1  0  0  0  0
 12 24  1  0  0  0  0
 14 15  2  0  0  0  0
 14 25  1  0  0  0  0
 15 16  1  0  0  0  0
 15 26  1  0  0  0  0
 16 17  1  0  0  0  0
 17 18  1  0  0  0  0
 18 27  1  0  0  0  0
 18 28  1  0  0  0  0
M  END
>  <Energy>
46.4492

$$$$

 OpenBabel04232614443D

 33 36  0  0  0  0  0  0  0  0999 V2000
    1.3442   -0.4211   -0.5261 C   0  0  0  0  0  0  0  0  0  0  0  0
    2.4886    0.0951    0.1466 O   0  0  0  0  0  0  0  0  0  0  0  0
    3.1775   -0.7825    0.9409 C   0  0  0  0  0  0  0  0  0  0  0  0
    2.8111   -2.1084    1.1792 C   0  0  0  0  0  0  0  0  0  0  0  0
    3.5986   -2.9251    1.9940 C   0  0  0  0  0  0  0  0  0  0  0  0
    4.7621   -2.4284    2.5847 C   0  0  0  0  0  0  0  0  0  0  0  0
    5.5467   -3.2632    3.3946 N   0  0  0  0  0  0  0  0  0  0  0  0
    6.7020   -2.8141    3.9738 C   0  0  0  0  0  0  0  0  0  0  0  0
    7.4391   -3.5965    4.6931 N   0  0  0  0  0  0  0  0  0  0  0  0
    7.1035   -1.4414    3.7782 C   0  0  0  0  0  0  0  0  0  0  0  0
    8.1658   -0.6835    4.2163 C   0  0  0  0  0  0  0  0  0  0  0  0
    9.2193   -1.0850    5.0354 C   0  0  0  0  0  0  0  0  0  0  0  0
   10.1149   -0.0168    5.2687 C   0  0  0  0  0  0  0  0  0  0  0  0
    9.9519    1.3040    4.7266 C   0  0  0  0  0  0  0  0  0  0  0  0
    8.8763    1.6962    3.8957 C   0  0  0  0  0  0  0  0  0  0  0  0
    8.0135    0.6291    3.6830 C   0  0  0  0  0  0  0  0  0  0  0  0
    6.8681    0.6550    2.9269 C   0  0  0  0  0  0  0  0  0  0  0  0
    6.3107   -0.6112    2.9823 N   0  0  0  0  0  0  0  0  0  0  0  0
    5.1202   -1.0825    2.3577 C   0  0  0  0  0  0  0  0  0  0  0  0
    4.3311   -0.2643    1.5402 C   0  0  0  0  0  0  0  0  0  0  0  0
    0.9267    0.3764   -1.1477 H   0  0  0  0  0  0  0  0  0  0  0  0
    0.5731   -0.7241    0.1903 H   0  0  0  0  0  0  0  0  0  0  0  0
    1.6148   -1.2510   -1.1882 H   0  0  0  0  0  0  0  0  0  0  0  0
    1.9187   -2.5445    0.7413 H   0  0  0  0  0  0  0  0  0  0  0  0
    3.2910   -3.9549    2.1561 H   0  0  0  0  0  0  0  0  0  0  0  0
    5.2664   -4.2235    3.5051 H   0  0  0  0  0  0  0  0  0  0  0  0
    7.0217   -4.5257    4.7325 H   0  0  0  0  0  0  0  0  0  0  0  0
    9.3530   -2.0756    5.4485 H   0  0  0  0  0  0  0  0  0  0  0  0
   10.9836   -0.2079    5.8984 H   0  0  0  0  0  0  0  0  0  0  0  0
   10.7080    2.0500    4.9762 H   0  0  0  0  0  0  0  0  0  0  0  0
    8.7648    2.6920    3.4941 H   0  0  0  0  0  0  0  0  0  0  0  0
    6.4130    1.4563    2.3646 H   0  0  0  0  0  0  0  0  0  0  0  0
    4.5907    0.7716    1.3436 H   0  0  0  0  0  0  0  0  0  0  0  0
  1  2  1  0  0  0  0
  1 21  1  0  0  0  0
  1 22  1  0  0  0  0
  1 23  1  0  0  0  0
  2  3  1  0  0  0  0
  3  4  1  0  0  0  0
  3 20  2  0  0  0  0
  4  5  2  0  0  0  0
  4 24  1  0  0  0  0
  5  6  1  0  0  0  0
  5 25  1  0  0  0  0
  6  7  1  0  0  0  0
  6 19  2  0  0  0  0
  7  8  1  0  0  0  0
  7 26  1  0  0  0  0
  8  9  2  0  0  0  0
  8 10  1  0  0  0  0
  9 27  1  0  0  0  0
 10 11  2  0  0  0  0
 10 18  1  0  0  0  0
 11 12  1  0  0  0  0
 11 16  1  0  0  0  0
 12 13  2  0  0  0  0
 12 28  1  0  0  0  0
 13 14  1  0  0  0  0
 13 29  1  0  0  0  0
 14 15  2  0  0  0  0
 14 30  1  0  0  0  0
 15 16  1  0  0  0  0
 15 31  1  0  0  0  0
 16 17  2  0  0  0  0
 17 18  1  0  0  0  0
 17 32  1  0  0  0  0
 18 19  1  0  0  0  0
 19 20  1  0  0  0  0
 20 33  1  0  0  0  0
M  END
>  <Energy>
1.30963

$$$$

 OpenBabel04232614443D

 28 30  0  0  0  0  0  0  0  0999 V2000
    0.9335   -0.1394   -0.3282 O   0  0  0  0  0  0  0  0  0  0  0  0
    2.3829   -0.1217   -0.3325 S   0  0  0  0  0  0  0  0  0  0  0  0
    3.1027   -0.1818   -1.5914 O   0  0  0  0  0  0  0  0  0  0  0  0
    2.8902    1.3057    0.4928 C   0  0  0  0  0  0  0  0  0  0  0  0
    3.6592    1.2644    1.5843 C   0  0  0  0  0  0  0  0  0  0  0  0
    4.1132    0.0145    2.1775 C   0  0  0  0  0  0  0  0  0  0  0  0
    4.9496    0.0474    3.3060 C   0  0  0  0  0  0  0  0  0  0  0  0
    5.3912   -1.1276    3.9471 C   0  0  0  0  0  0  0  0  0  0  0  0
    6.2674   -1.0682    5.1425 C   0  0  0  0  0  0  0  0  0  0  0  0
    6.1508   -0.0315    6.0885 C   0  0  0  0  0  0  0  0  0  0  0  0
    7.0049    0.0528    7.1929 C   0  0  0  0  0  0  0  0  0  0  0  0
    7.9856   -0.9128    7.3900 C   0  0  0  0  0  0  0  0  0  0  0  0
    8.1088   -1.9626    6.4861 C   0  0  0  0  0  0  0  0  0  0  0  0
    7.2630   -2.0352    5.3740 C   0  0  0  0  0  0  0  0  0  0  0  0
    4.9704   -2.3506    3.3989 C   0  0  0  0  0  0  0  0  0  0  0  0
    4.1503   -2.3952    2.2674 C   0  0  0  0  0  0  0  0  0  0  0  0
    3.7193   -1.2150    1.6638 C   0  0  0  0  0  0  0  0  0  0  0  0
    2.8914   -1.3618    0.5885 O   0  0  0  0  0  0  0  0  0  0  0  0
    2.5572    2.2424    0.0686 H   0  0  0  0  0  0  0  0  0  0  0  0
    3.9589    2.1930    2.0607 H   0  0  0  0  0  0  0  0  0  0  0  0
    5.2728    1.0141    3.6893 H   0  0  0  0  0  0  0  0  0  0  0  0
    5.3818    0.7306    5.9826 H   0  0  0  0  0  0  0  0  0  0  0  0
    6.9004    0.8741    7.8972 H   0  0  0  0  0  0  0  0  0  0  0  0
    8.6518   -0.8478    8.2460 H   0  0  0  0  0  0  0  0  0  0  0  0
    8.8695   -2.7241    6.6379 H   0  0  0  0  0  0  0  0  0  0  0  0
    7.4089   -2.8574    4.6769 H   0  0  0  0  0  0  0  0  0  0  0  0
    5.2653   -3.2936    3.8546 H   0  0  0  0  0  0  0  0  0  0  0  0
    3.8429   -3.3574    1.8641 H   0  0  0  0  0  0  0  0  0  0  0  0
  1  2  2  0  0  0  0
  2  3  2  0  0  0  0
  2  4  1  0  0  0  0
  2 18  1  0  0  0  0
  4  5  2  0  0  0  0
  4 19  1  0  0  0  0
  5  6  1  0  0  0  0
  5 20  1  0  0  0  0
  6  7  1  0  0  0  0
  6 17  2  0  0  0  0
  7  8  2  0  0  0  0
  7 21  1  0  0  0  0
  8  9  1  0  0  0  0
  8 15  1  0  0  0  0
  9 10  1  0  0  0  0
  9 14  2  0  0  0  0
 10 11  2  0  0  0  0
 10 22  1  0  0  0  0
 11 12  1  0  0  0  0
 11 23  1  0  0  0  0
 12 13  2  0  0  0  0
 12 24  1  0  0  0  0
 13 14  1  0  0  0  0
 13 25  1  0  0  0  0
 14 26  1  0  0  0  0
 15 16  2  0  0  0  0
 15 27  1  0  0  0  0
 16 17  1  0  0  0  0
 16 28  1  0  0  0  0
 17 18  1  0  0  0  0
M  END
>  <Energy>
45.3897

$$$$

 OpenBabel04232614443D

 32 35  0  0  0  0  0  0  0  0999 V2000
    0.9390   -0.0345    0.0783 C   0  0  0  0  0  0  0  0  0  0  0  0
    2.4437    0.0067    0.0781 C   0  0  0  0  0  0  0  0  0  0  0  0
    3.1751   -1.1939    0.0785 C   0  0  0  0  0  0  0  0  0  0  0  0
    4.5648   -1.2170    0.0778 C   0  0  0  0  0  0  0  0  0  0  0  0
    5.2056   -2.4098    0.0783 N   0  0  0  0  0  0  0  0  0  0  0  0
    6.5426   -2.2982    0.0773 C   0  0  0  0  0  0  0  0  0  0  0  0
    7.2362   -1.0994    0.0762 C   0  0  0  0  0  0  0  0  0  0  0  0
    6.6266    0.0959    0.0758 N   0  0  0  0  0  0  0  0  0  0  0  0
    5.2717    0.0312    0.0766 C   0  0  0  0  0  0  0  0  0  0  0  0
    4.5411    1.2133    0.0764 C   0  0  0  0  0  0  0  0  0  0  0  0
    3.1362    1.2271    0.0773 C   0  0  0  0  0  0  0  0  0  0  0  0
    2.4010    2.5407    0.0777 C   0  0  0  0  0  0  0  0  0  0  0  0
    8.6550   -1.3415    0.0761 C   0  0  0  0  0  0  0  0  0  0  0  0
    9.7307   -0.4718    0.0747 C   0  0  0  0  0  0  0  0  0  0  0  0
   11.0209   -1.0171    0.0745 C   0  0  0  0  0  0  0  0  0  0  0  0
   11.2213   -2.4121    0.0754 C   0  0  0  0  0  0  0  0  0  0  0  0
   10.1351   -3.2909    0.0767 C   0  0  0  0  0  0  0  0  0  0  0  0
    8.8719   -2.7297    0.0771 C   0  0  0  0  0  0  0  0  0  0  0  0
    7.5415   -3.3936    0.0779 C   0  0  0  0  0  0  0  0  0  0  0  0
    7.3545   -4.5911    0.0790 O   0  0  0  0  0  0  0  0  0  0  0  0
    0.5609   -1.0617    0.0786 H   0  0  0  0  0  0  0  0  0  0  0  0
    0.5462    0.4623   -0.8149 H   0  0  0  0  0  0  0  0  0  0  0  0
    0.5462    0.4629    0.9711 H   0  0  0  0  0  0  0  0  0  0  0  0
    2.6487   -2.1473    0.0795 H   0  0  0  0  0  0  0  0  0  0  0  0
    5.0902    2.1534    0.0758 H   0  0  0  0  0  0  0  0  0  0  0  0
    3.0896    3.3916    0.0774 H   0  0  0  0  0  0  0  0  0  0  0  0
    1.7734    2.6238    0.9710 H   0  0  0  0  0  0  0  0  0  0  0  0
    1.7726    2.6237   -0.8151 H   0  0  0  0  0  0  0  0  0  0  0  0
    9.5801    0.6039    0.0734 H   0  0  0  0  0  0  0  0  0  0  0  0
   11.8840   -0.3532    0.0732 H   0  0  0  0  0  0  0  0  0  0  0  0
   12.2362   -2.8064    0.0751 H   0  0  0  0  0  0  0  0  0  0  0  0
   10.2750   -4.3670    0.0769 H   0  0  0  0  0  0  0  0  0  0  0  0
  1  2  1  0  0  0  0
  1 21  1  0  0  0  0
  1 22  1  0  0  0  0
  1 23  1  0  0  0  0
  2  3  1  0  0  0  0
  2 11  2  0  0  0  0
  3  4  2  0  0  0  0
  3 24  1  0  0  0  0
  4  5  1  0  0  0  0
  4  9  1  0  0  0  0
  5  6  2  0  0  0  0
  6  7  1  0  0  0  0
  6 19  1  0  0  0  0
  7  8  2  0  0  0  0
  7 13  1  0  0  0  0
  8  9  1  0  0  0  0
  9 10  2  0  0  0  0
 10 11  1  0  0  0  0
 10 25  1  0  0  0  0
 11 12  1  0  0  0  0
 12 26  1  0  0  0  0
 12 27  1  0  0  0  0
 12 28  1  0  0  0  0
 13 14  1  0  0  0  0
 13 18  2  0  0  0  0
 14 15  2  0  0  0  0
 14 29  1  0  0  0  0
 15 16  1  0  0  0  0
 15 30  1  0  0  0  0
 16 17  2  0  0  0  0
 16 31  1  0  0  0  0
 17 18  1  0  0  0  0
 17 32  1  0  0  0  0
 18 19  1  0  0  0  0
 19 20  2  0  0  0  0
M  END
>  <Energy>
152.076

$$$$

 OpenBabel04232614443D

 29 31  0  0  0  0  0  0  0  0999 V2000
    0.8967   -0.3382   -0.1901 C   0  0  0  0  0  0  0  0  0  0  0  0
    2.3813   -0.3346   -0.0800 C   0  0  0  0  0  0  0  0  0  0  0  0
    3.0232    0.8777   -0.0494 N   0  0  0  0  0  0  0  0  0  0  0  0
    4.4576    1.0425    0.0787 N   0  0  0  0  0  0  0  0  0  0  0  0
    5.2985   -0.0090    0.1995 C   0  0  0  0  0  0  0  0  0  0  0  0
    6.9617    0.2140    0.3554 Cl  0  0  0  0  0  0  0  0  0  0  0  0
    4.7155   -1.2862    0.1781 C   0  0  0  0  0  0  0  0  0  0  0  0
    5.2463   -2.5126    0.3105 N   0  0  0  0  0  0  0  0  0  0  0  0
    4.2371   -3.3952    0.0943 N   0  0  0  0  0  0  0  0  0  0  0  0
    4.5701   -4.7763   -0.0245 C   0  0  0  0  0  0  0  0  0  0  0  0
    5.7251   -5.2512    0.6192 C   0  0  0  0  0  0  0  0  0  0  0  0
    6.0795   -6.5987    0.5305 C   0  0  0  0  0  0  0  0  0  0  0  0
    5.3032   -7.4741   -0.2237 C   0  0  0  0  0  0  0  0  0  0  0  0
    4.1754   -7.0029   -0.8951 C   0  0  0  0  0  0  0  0  0  0  0  0
    3.8071   -5.6572   -0.7996 C   0  0  0  0  0  0  0  0  0  0  0  0
    2.9950   -2.7653    0.0262 C   0  0  0  0  0  0  0  0  0  0  0  0
    1.6881   -3.4772    0.0386 C   0  0  0  0  0  0  0  0  0  0  0  0
    3.2836   -1.4155    0.0214 C   0  0  0  0  0  0  0  0  0  0  0  0
    0.5158    0.6799   -0.3227 H   0  0  0  0  0  0  0  0  0  0  0  0
    0.4503   -0.7429    0.7227 H   0  0  0  0  0  0  0  0  0  0  0  0
    0.5753   -0.9338   -1.0489 H   0  0  0  0  0  0  0  0  0  0  0  0
    6.3466   -4.5847    1.2155 H   0  0  0  0  0  0  0  0  0  0  0  0
    6.9626   -6.9607    1.0519 H   0  0  0  0  0  0  0  0  0  0  0  0
    5.5846   -8.5218   -0.2988 H   0  0  0  0  0  0  0  0  0  0  0  0
    3.5901   -7.6848   -1.5083 H   0  0  0  0  0  0  0  0  0  0  0  0
    2.9551   -5.3202   -1.3820 H   0  0  0  0  0  0  0  0  0  0  0  0
    1.7612   -4.5007    0.4133 H   0  0  0  0  0  0  0  0  0  0  0  0
    1.2530   -3.4959   -0.9654 H   0  0  0  0  0  0  0  0  0  0  0  0
    0.9837   -2.9763    0.7092 H   0  0  0  0  0  0  0  0  0  0  0  0
  1  2  1  0  0  0  0
  1 19  1  0  0  0  0
  1 20  1  0  0  0  0
  1 21  1  0  0  0  0
  2  3  2  0  0  0  0
  2 18  1  0  0  0  0
  3  4  1  0  0  0  0
  4  5  2  0  0  0  0
  5  6  1  0  0  0  0
  5  7  1  0  0  0  0
  7  8  2  0  0  0  0
  7 18  1  0  0  0  0
  8  9  1  0  0  0  0
  9 10  1  0  0  0  0
  9 16  1  0  0  0  0
 10 11  1  0  0  0  0
 10 15  2  0  0  0  0
 11 12  2  0  0  0  0
 11 22  1  0  0  0  0
 12 13  1  0  0  0  0
 12 23  1  0  0  0  0
 13 14  2  0  0  0  0
 13 24  1  0  0  0  0
 14 15  1  0  0  0  0
 14 25  1  0  0  0  0
 15 26  1  0  0  0  0
 16 17  1  0  0  0  0
 16 18  2  0  0  0  0
 17 27  1  0  0  0  0
 17 28  1  0  0  0  0
 17 29  1  0  0  0  0
M  END
>  <Energy>
106.324

$$$$

 OpenBabel04232614443D

 24 26  0  0  0  0  0  0  0  0999 V2000
    0.9694   -0.0720    0.2291 N   0  0  0  0  0  0  0  0  0  0  0  0
    2.3530   -0.0498    0.0319 C   0  0  0  0  0  0  0  0  0  0  0  0
    3.0432    1.1580    0.0558 C   0  0  0  0  0  0  0  0  0  0  0  0
    4.4391    1.1726    0.0228 C   0  0  0  0  0  0  0  0  0  0  0  0
    5.1706   -0.0063    0.0078 C   0  0  0  0  0  0  0  0  0  0  0  0
    6.5144    0.0494   -0.0028 N   0  0  0  0  0  0  0  0  0  0  0  0
    7.1817   -1.1163    0.0073 C   0  0  0  0  0  0  0  0  0  0  0  0
    8.5712   -1.1059    0.0093 C   0  0  0  0  0  0  0  0  0  0  0  0
    9.3044   -2.2926    0.0158 C   0  0  0  0  0  0  0  0  0  0  0  0
    8.6282   -3.5053    0.0200 C   0  0  0  0  0  0  0  0  0  0  0  0
    9.6032   -5.1238    0.0232 Br  0  0  0  0  0  0  0  0  0  0  0  0
    7.2351   -3.5331    0.0218 C   0  0  0  0  0  0  0  0  0  0  0  0
    6.5007   -2.3542    0.0165 C   0  0  0  0  0  0  0  0  0  0  0  0
    5.1554   -2.4078    0.0244 N   0  0  0  0  0  0  0  0  0  0  0  0
    4.4843   -1.2392    0.0237 C   0  0  0  0  0  0  0  0  0  0  0  0
    3.0923   -1.2358    0.0544 C   0  0  0  0  0  0  0  0  0  0  0  0
    0.4839    0.7639   -0.0817 H   0  0  0  0  0  0  0  0  0  0  0  0
    0.5115   -0.9239   -0.0810 H   0  0  0  0  0  0  0  0  0  0  0  0
    2.5058    2.1013    0.1070 H   0  0  0  0  0  0  0  0  0  0  0  0
    4.9675    2.1223    0.0305 H   0  0  0  0  0  0  0  0  0  0  0  0
    9.0913   -0.1508    0.0073 H   0  0  0  0  0  0  0  0  0  0  0  0
   10.3908   -2.2549    0.0170 H   0  0  0  0  0  0  0  0  0  0  0  0
    6.7026   -4.4805    0.0273 H   0  0  0  0  0  0  0  0  0  0  0  0
    2.5794   -2.1928    0.1029 H   0  0  0  0  0  0  0  0  0  0  0  0
  1  2  1  0  0  0  0
  1 17  1  0  0  0  0
  1 18  1  0  0  0  0
  2  3  1  0  0  0  0
  2 16  2  0  0  0  0
  3  4  2  0  0  0  0
  3 19  1  0  0  0  0
  4  5  1  0  0  0  0
  4 20  1  0  0  0  0
  5  6  1  0  0  0  0
  5 15  2  0  0  0  0
  6  7  2  0  0  0  0
  7  8  1  0  0  0  0
  7 13  1  0  0  0  0
  8  9  2  0  0  0  0
  8 21  1  0  0  0  0
  9 10  1  0  0  0  0
  9 22  1  0  0  0  0
 10 11  1  0  0  0  0
 10 12  2  0  0  0  0
 12 13  1  0  0  0  0
 12 23  1  0  0  0  0
 13 14  2  0  0  0  0
 14 15  1  0  0  0  0
 15 16  1  0  0  0  0
 16 24  1  0  0  0  0
M  END
>  <Energy>
72.1336

$$$$

 OpenBabel04232614443D

 32 34  0  0  0  0  0  0  0  0999 V2000
    0.9881    0.1456    0.0984 C   0  0  0  0  0  0  0  0  0  0  0  0
    2.4893    0.0380    0.0975 C   0  0  0  0  0  0  0  0  0  0  0  0
    3.1733   -1.1850    0.0973 C   0  0  0  0  0  0  0  0  0  0  0  0
    2.5709   -2.4111    0.0952 O   0  0  0  0  0  0  0  0  0  0  0  0
    4.5687   -1.2336    0.0989 C   0  0  0  0  0  0  0  0  0  0  0  0
    5.3124   -0.0587    0.1011 C   0  0  0  0  0  0  0  0  0  0  0  0
    6.6748   -0.1448    0.1021 O   0  0  0  0  0  0  0  0  0  0  0  0
    4.6652    1.1822    0.0990 C   0  0  0  0  0  0  0  0  0  0  0  0
    5.4158    2.4577    0.0990 C   0  0  0  0  0  0  0  0  0  0  0  0
    6.6354    2.5567    0.1090 O   0  0  0  0  0  0  0  0  0  0  0  0
    4.6171    3.6873    0.0889 C   0  0  0  0  0  0  0  0  0  0  0  0
    3.2839    3.6013    0.0882 C   0  0  0  0  0  0  0  0  0  0  0  0
    2.5084    4.8472    0.0868 C   0  0  0  0  0  0  0  0  0  0  0  0
    2.1443    5.4533   -1.1224 C   0  0  0  0  0  0  0  0  0  0  0  0
    1.5650    6.7250   -1.1267 C   0  0  0  0  0  0  0  0  0  0  0  0
    1.3467    7.3982    0.0743 C   0  0  0  0  0  0  0  0  0  0  0  0
    1.6889    6.7945    1.2837 C   0  0  0  0  0  0  0  0  0  0  0  0
    2.2650    5.5229    1.2909 C   0  0  0  0  0  0  0  0  0  0  0  0
    2.5627    2.4255    0.0919 O   0  0  0  0  0  0  0  0  0  0  0  0
    3.2588    1.2272    0.0966 C   0  0  0  0  0  0  0  0  0  0  0  0
    0.4789   -0.8204    0.1005 H   0  0  0  0  0  0  0  0  0  0  0  0
    0.6498    0.6799   -0.7953 H   0  0  0  0  0  0  0  0  0  0  0  0
    0.6510    0.6823    0.9913 H   0  0  0  0  0  0  0  0  0  0  0  0
    1.6074   -2.3262    0.0893 H   0  0  0  0  0  0  0  0  0  0  0  0
    5.0582   -2.2040    0.0978 H   0  0  0  0  0  0  0  0  0  0  0  0
    6.9553   -1.0731    0.1095 H   0  0  0  0  0  0  0  0  0  0  0  0
    5.1567    4.6240    0.0852 H   0  0  0  0  0  0  0  0  0  0  0  0
    2.3413    4.9553   -2.0687 H   0  0  0  0  0  0  0  0  0  0  0  0
    1.3058    7.2006   -2.0696 H   0  0  0  0  0  0  0  0  0  0  0  0
    0.9204    8.3986    0.0680 H   0  0  0  0  0  0  0  0  0  0  0  0
    1.5283    7.3239    2.2194 H   0  0  0  0  0  0  0  0  0  0  0  0
    2.5553    5.0760    2.2402 H   0  0  0  0  0  0  0  0  0  0  0  0
  1  2  1  0  0  0  0
  1 21  1  0  0  0  0
  1 22  1  0  0  0  0
  1 23  1  0  0  0  0
  2  3  1  0  0  0  0
  2 20  2  0  0  0  0
  3  4  1  0  0  0  0
  3  5  2  0  0  0  0
  4 24  1  0  0  0  0
  5  6  1  0  0  0  0
  5 25  1  0  0  0  0
  6  7  1  0  0  0  0
  6  8  2  0  0  0  0
  7 26  1  0  0  0  0
  8  9  1  0  0  0  0
  8 20  1  0  0  0  0
  9 10  2  0  0  0  0
  9 11  1  0  0  0  0
 11 12  2  0  0  0  0
 11 27  1  0  0  0  0
 12 13  1  0  0  0  0
 12 19  1  0  0  0  0
 13 14  1  0  0  0  0
 13 18  2  0  0  0  0
 14 15  2  0  0  0  0
 14 28  1  0  0  0  0
 15 16  1  0  0  0  0
 15 29  1  0  0  0  0
 16 17  2  0  0  0  0
 16 30  1  0  0  0  0
 17 18  1  0  0  0  0
 17 31  1  0  0  0  0
 18 32  1  0  0  0  0
 19 20  1  0  0  0  0
M  END
>  <Energy>
52.3864

$$$$

 OpenBabel04232614443D

 31 34  0  0  0  0  0  0  0  0999 V2000
   -3.2306    0.6649   -0.1525 O   0  0  0  0  0  0  0  0  0  0  0  0
   -2.0916    0.2022   -0.0829 C   0  0  0  0  0  0  0  0  0  0  0  0
   -1.0025    1.0332   -0.0533 N   0  0  0  0  0  0  0  0  0  0  0  0
    0.3193    0.5757   -0.0162 C   0  0  0  0  0  0  0  0  0  0  0  0
    1.3719    1.4893   -0.0095 C   0  0  0  0  0  0  0  0  0  0  0  0
    2.6866    1.0218    0.0058 C   0  0  0  0  0  0  0  0  0  0  0  0
    2.9421   -0.3505    0.0146 C   0  0  0  0  0  0  0  0  0  0  0  0
    1.8839   -1.2624    0.0161 C   0  0  0  0  0  0  0  0  0  0  0  0
    0.5650   -0.8024    0.0031 C   0  0  0  0  0  0  0  0  0  0  0  0
   -0.5674   -1.7273    0.0113 C   0  0  0  0  0  0  0  0  0  0  0  0
   -1.8357   -1.2789   -0.0276 C   0  0  0  0  0  0  0  0  0  0  0  0
   -2.8995   -2.2281   -0.0101 C   0  0  0  0  0  0  0  0  0  0  0  0
   -2.8718   -3.5442    0.1254 N   0  0  0  0  0  0  0  0  0  0  0  0
   -4.1800   -3.9597    0.0686 C   0  0  0  0  0  0  0  0  0  0  0  0
   -4.7179   -5.2508    0.1683 C   0  0  0  0  0  0  0  0  0  0  0  0
   -6.1065   -5.4087    0.0697 C   0  0  0  0  0  0  0  0  0  0  0  0
   -6.9404   -4.3046   -0.1261 C   0  0  0  0  0  0  0  0  0  0  0  0
   -6.4211   -3.0084   -0.2233 C   0  0  0  0  0  0  0  0  0  0  0  0
   -5.0348   -2.8821   -0.1177 C   0  0  0  0  0  0  0  0  0  0  0  0
   -4.2003   -1.7968   -0.1553 N   0  0  0  0  0  0  0  0  0  0  0  0
   -1.1962    2.0249   -0.0831 H   0  0  0  0  0  0  0  0  0  0  0  0
    1.1855    2.5590   -0.0187 H   0  0  0  0  0  0  0  0  0  0  0  0
    3.5142    1.7271    0.0079 H   0  0  0  0  0  0  0  0  0  0  0  0
    3.9681   -0.7115    0.0213 H   0  0  0  0  0  0  0  0  0  0  0  0
    2.0996   -2.3286    0.0252 H   0  0  0  0  0  0  0  0  0  0  0  0
   -0.3517   -2.7917    0.0535 H   0  0  0  0  0  0  0  0  0  0  0  0
   -4.0646   -6.1025    0.3193 H   0  0  0  0  0  0  0  0  0  0  0  0
   -6.5379   -6.4040    0.1461 H   0  0  0  0  0  0  0  0  0  0  0  0
   -8.0157   -4.4543   -0.2029 H   0  0  0  0  0  0  0  0  0  0  0  0
   -7.0669   -2.1504   -0.3732 H   0  0  0  0  0  0  0  0  0  0  0  0
   -4.4771   -0.8273   -0.2631 H   0  0  0  0  0  0  0  0  0  0  0  0
  1  2  2  0  0  0  0
  2  3  1  0  0  0  0
  2 11  1  0  0  0  0
  3  4  1  0  0  0  0
  3 21  1  0  0  0  0
  4  5  1  0  0  0  0
  4  9  2  0  0  0  0
  5  6  2  0  0  0  0
  5 22  1  0  0  0  0
  6  7  1  0  0  0  0
  6 23  1  0  0  0  0
  7  8  2  0  0  0  0
  7 24  1  0  0  0  0
  8  9  1  0  0  0  0
  8 25  1  0  0  0  0
  9 10  1  0  0  0  0
 10 11  2  0  0  0  0
 10 26  1  0  0  0  0
 11 12  1  0  0  0  0
 12 13  2  0  0  0  0
 12 20  1  0  0  0  0
 13 14  1  0  0  0  0
 14 15  1  0  0  0  0
 14 19  2  0  0  0  0
 15 16  2  0  0  0  0
 15 27  1  0  0  0  0
 16 17  1  0  0  0  0
 16 28  1  0  0  0  0
 17 18  2  0  0  0  0
 17 29  1  0  0  0  0
 18 19  1  0  0  0  0
 18 30  1  0  0  0  0
 19 20  1  0  0  0  0
 20 31  1  0  0  0  0
M  END
>  <Energy>
17.7888

$$$$

 OpenBabel04232614443D

 32 34  0  0  0  0  0  0  0  0999 V2000
    1.8355   -1.3634    2.3855 N   0  0  0  0  0  0  0  0  0  0  0  0
    0.5026   -1.6362    2.0333 C   0  0  0  0  0  0  0  0  0  0  0  0
   -0.4860   -1.2292    2.9472 C   0  0  0  0  0  0  0  0  0  0  0  0
   -1.8465   -1.3041    2.6413 C   0  0  0  0  0  0  0  0  0  0  0  0
   -2.2510   -1.7566    1.3935 C   0  0  0  0  0  0  0  0  0  0  0  0
   -1.2919   -2.1301    0.4544 C   0  0  0  0  0  0  0  0  0  0  0  0
    0.0855   -2.0571    0.7519 C   0  0  0  0  0  0  0  0  0  0  0  0
    0.9962   -2.5338   -0.3309 C   0  0  0  0  0  0  0  0  0  0  0  0
    0.6059   -2.8539   -1.4485 O   0  0  0  0  0  0  0  0  0  0  0  0
    2.2935   -2.6364    0.1296 O   0  0  0  0  0  0  0  0  0  0  0  0
    3.0621   -3.8250   -0.0121 C   0  0  0  0  0  0  0  0  0  0  0  0
    2.7079   -4.8467   -0.8973 C   0  0  0  0  0  0  0  0  0  0  0  0
    3.4247   -6.0349   -0.8874 C   0  0  0  0  0  0  0  0  0  0  0  0
    4.4895   -6.1911   -0.0056 C   0  0  0  0  0  0  0  0  0  0  0  0
    4.8631   -5.1514    0.8611 C   0  0  0  0  0  0  0  0  0  0  0  0
    5.9411   -5.3017    1.7413 C   0  0  0  0  0  0  0  0  0  0  0  0
    6.3039   -4.2600    2.5833 C   0  0  0  0  0  0  0  0  0  0  0  0
    5.5577   -3.0989    2.5291 C   0  0  0  0  0  0  0  0  0  0  0  0
    4.4899   -2.9257    1.7155 N   0  0  0  0  0  0  0  0  0  0  0  0
    4.1497   -3.9320    0.8704 C   0  0  0  0  0  0  0  0  0  0  0  0
    2.0307   -1.4092    3.3792 H   0  0  0  0  0  0  0  0  0  0  0  0
    2.5471   -1.8866    1.8637 H   0  0  0  0  0  0  0  0  0  0  0  0
   -0.1930   -0.8370    3.9186 H   0  0  0  0  0  0  0  0  0  0  0  0
   -2.5847   -0.9898    3.3749 H   0  0  0  0  0  0  0  0  0  0  0  0
   -3.3084   -1.8093    1.1449 H   0  0  0  0  0  0  0  0  0  0  0  0
   -1.6250   -2.4796   -0.5220 H   0  0  0  0  0  0  0  0  0  0  0  0
    1.8790   -4.7476   -1.5897 H   0  0  0  0  0  0  0  0  0  0  0  0
    3.1416   -6.8440   -1.5581 H   0  0  0  0  0  0  0  0  0  0  0  0
    5.0323   -7.1329    0.0005 H   0  0  0  0  0  0  0  0  0  0  0  0
    6.5074   -6.2302    1.7689 H   0  0  0  0  0  0  0  0  0  0  0  0
    7.1461   -4.3525    3.2604 H   0  0  0  0  0  0  0  0  0  0  0  0
    5.8090   -2.2476    3.1571 H   0  0  0  0  0  0  0  0  0  0  0  0
  1  2  1  0  0  0  0
  1 21  1  0  0  0  0
  1 22  1  0  0  0  0
  2  3  1  0  0  0  0
  2  7  2  0  0  0  0
  3  4  2  0  0  0  0
  3 23  1  0  0  0  0
  4  5  1  0  0  0  0
  4 24  1  0  0  0  0
  5  6  2  0  0  0  0
  5 25  1  0  0  0  0
  6  7  1  0  0  0  0
  6 26  1  0  0  0  0
  7  8  1  0  0  0  0
  8  9  2  0  0  0  0
  8 10  1  0  0  0  0
 10 11  1  0  0  0  0
 11 12  1  0  0  0  0
 11 20  2  0  0  0  0
 12 13  2  0  0  0  0
 12 27  1  0  0  0  0
 13 14  1  0  0  0  0
 13 28  1  0  0  0  0
 14 15  2  0  0  0  0
 14 29  1  0  0  0  0
 15 16  1  0  0  0  0
 15 20  1  0  0  0  0
 16 17  2  0  0  0  0
 16 30  1  0  0  0  0
 17 18  1  0  0  0  0
 17 31  1  0  0  0  0
 18 19  2  0  0  0  0
 18 32  1  0  0  0  0
 19 20  1  0  0  0  0
M  END
>  <Energy>
112.248

$$$$

 OpenBabel04232614443D

 38 40  0  0  1  0  0  0  0  0999 V2000
    2.4988   -0.0180   -0.1202 C   0  0  0  0  0  0  0  0  0  0  0  0
    1.0349   -0.0065    0.3192 C   0  0  3  0  0  0  0  0  0  0  0  0
    0.3416    1.2784   -0.1537 C   0  0  0  0  0  0  0  0  0  0  0  0
   -1.1453    1.2878    0.2047 C   0  0  0  0  0  0  0  0  0  0  0  0
   -1.8808    0.0524   -0.3272 C   0  0  3  0  0  0  0  0  0  0  0  0
   -1.9728    0.0740   -1.7822 N   0  0  0  0  0  0  0  0  0  0  0  0
   -2.9927    0.7076   -2.4615 C   0  0  0  0  0  0  0  0  0  0  0  0
   -3.9175    1.2950   -1.9162 O   0  0  0  0  0  0  0  0  0  0  0  0
   -2.8929    0.6672   -3.9501 C   0  0  0  0  0  0  0  0  0  0  0  0
   -3.4965    1.6913   -4.6962 C   0  0  0  0  0  0  0  0  0  0  0  0
   -3.4157    1.7218   -6.0956 C   0  0  0  0  0  0  0  0  0  0  0  0
   -2.7119    0.6796   -6.7017 C   0  0  0  0  0  0  0  0  0  0  0  0
   -2.4268    0.3892   -8.0132 N   0  0  0  0  0  0  0  0  0  0  0  0
   -1.7035   -0.7697   -8.0411 C   0  0  0  0  0  0  0  0  0  0  0  0
   -1.5055   -1.2471   -6.8347 N   0  0  0  0  0  0  0  0  0  0  0  0
   -2.1230   -0.3599   -5.9909 C   0  0  0  0  0  0  0  0  0  0  0  0
   -2.2190   -0.3837   -4.5944 C   0  0  0  0  0  0  0  0  0  0  0  0
   -1.1855   -1.2332    0.1381 C   0  0  0  0  0  0  0  0  0  0  0  0
    0.3085   -1.2566   -0.1943 C   0  0  0  0  0  0  0  0  0  0  0  0
    3.0281    0.8590    0.2670 H   0  0  0  0  0  0  0  0  0  0  0  0
    2.5870   -0.0107   -1.2121 H   0  0  0  0  0  0  0  0  0  0  0  0
    3.0104   -0.9109    0.2542 H   0  0  0  0  0  0  0  0  0  0  0  0
    1.0124   -0.0243    1.4170 H   0  0  0  0  0  0  0  0  0  0  0  0
    0.4582    1.3912   -1.2388 H   0  0  0  0  0  0  0  0  0  0  0  0
    0.8258    2.1492    0.3048 H   0  0  0  0  0  0  0  0  0  0  0  0
   -1.6062    2.2058   -0.1781 H   0  0  0  0  0  0  0  0  0  0  0  0
   -1.2431    1.3155    1.2977 H   0  0  0  0  0  0  0  0  0  0  0  0
   -2.9043    0.0601    0.0669 H   0  0  0  0  0  0  0  0  0  0  0  0
   -1.1402   -0.1698   -2.2999 H   0  0  0  0  0  0  0  0  0  0  0  0
   -4.0362    2.4849   -4.1799 H   0  0  0  0  0  0  0  0  0  0  0  0
   -3.8781    2.5183   -6.6688 H   0  0  0  0  0  0  0  0  0  0  0  0
   -2.7031    0.9350   -8.8163 H   0  0  0  0  0  0  0  0  0  0  0  0
   -1.3525   -1.2138   -8.9634 H   0  0  0  0  0  0  0  0  0  0  0  0
   -1.7868   -1.2184   -4.0575 H   0  0  0  0  0  0  0  0  0  0  0  0
   -1.6687   -2.1083   -0.3134 H   0  0  0  0  0  0  0  0  0  0  0  0
   -1.3056   -1.3293    1.2244 H   0  0  0  0  0  0  0  0  0  0  0  0
    0.4431   -1.3487   -1.2792 H   0  0  0  0  0  0  0  0  0  0  0  0
    0.7582   -2.1536    0.2487 H   0  0  0  0  0  0  0  0  0  0  0  0
  1  2  1  0  0  0  0
  1 20  1  0  0  0  0
  1 21  1  0  0  0  0
  1 22  1  0  0  0  0
  2  3  1  0  0  0  0
  2 19  1  0  0  0  0
  2 23  1  0  0  0  0
  3  4  1  0  0  0  0
  3 24  1  0  0  0  0
  3 25  1  0  0  0  0
  4  5  1  0  0  0  0
  4 26  1  0  0  0  0
  4 27  1  0  0  0  0
  5  6  1  0  0  0  0
  5 18  1  0  0  0  0
  5 28  1  0  0  0  0
  6  7  1  0  0  0  0
  6 29  1  0  0  0  0
  7  8  2  0  0  0  0
  7  9  1  0  0  0  0
  9 10  1  0  0  0  0
  9 17  2  0  0  0  0
 10 11  2  0  0  0  0
 10 30  1  0  0  0  0
 11 12  1  0  0  0  0
 11 31  1  0  0  0  0
 12 13  1  0  0  0  0
 12 16  2  0  0  0  0
 13 14  1  0  0  0  0
 13 32  1  0  0  0  0
 14 15  2  0  0  0  0
 14 33  1  0  0  0  0
 15 16  1  0  0  0  0
 16 17  1  0  0  0  0
 17 34  1  0  0  0  0
 18 19  1  0  0  0  0
 18 35  1  0  0  0  0
 18 36  1  0  0  0  0
 19 37  1  0  0  0  0
 19 38  1  0  0  0  0
M  END
>  <Energy>
-2.24361

$$$$

 OpenBabel04232614443D

 31 34  0  0  0  0  0  0  0  0999 V2000
    1.4007   -0.2204    0.3128 O   0  0  0  0  0  0  0  0  0  0  0  0
    2.5995   -0.2968    0.1315 C   0  0  0  0  0  0  0  0  0  0  0  0
    3.4940    0.7584    0.1000 N   0  0  0  0  0  0  0  0  0  0  0  0
    4.7894    0.3318   -0.1473 C   0  0  0  0  0  0  0  0  0  0  0  0
    5.8641    1.1193   -0.0770 N   0  0  0  0  0  0  0  0  0  0  0  0
    7.0478    0.4680   -0.1885 C   0  0  0  0  0  0  0  0  0  0  0  0
    7.1775   -0.9080   -0.3875 C   0  0  0  0  0  0  0  0  0  0  0  0
    6.0265   -1.6874   -0.4852 C   0  0  0  0  0  0  0  0  0  0  0  0
    4.8067   -1.0459   -0.3610 C   0  0  0  0  0  0  0  0  0  0  0  0
    3.4347   -1.5157   -0.1536 C   0  0  0  0  0  0  0  0  0  0  0  0
    3.1692   -2.8230   -0.0133 C   0  0  0  0  0  0  0  0  0  0  0  0
    2.1798   -3.4689    0.7861 C   0  0  0  0  0  0  0  0  0  0  0  0
    1.4685   -2.9004    1.8186 C   0  0  0  0  0  0  0  0  0  0  0  0
    0.9737   -3.9101    2.6012 N   0  0  0  0  0  0  0  0  0  0  0  0
    1.4126   -5.1242    2.1322 C   0  0  0  0  0  0  0  0  0  0  0  0
    1.3506   -6.3955    2.7113 C   0  0  0  0  0  0  0  0  0  0  0  0
    1.8994   -7.4520    1.9860 C   0  0  0  0  0  0  0  0  0  0  0  0
    1.9161   -8.6744    2.5336 F   0  0  0  0  0  0  0  0  0  0  0  0
    2.4381   -7.2738    0.7182 C   0  0  0  0  0  0  0  0  0  0  0  0
    2.5179   -5.9928    0.1644 C   0  0  0  0  0  0  0  0  0  0  0  0
    2.0410   -4.8885    0.9050 C   0  0  0  0  0  0  0  0  0  0  0  0
    3.2549    1.7161    0.2944 H   0  0  0  0  0  0  0  0  0  0  0  0
    7.9289    1.0940   -0.0840 H   0  0  0  0  0  0  0  0  0  0  0  0
    8.1605   -1.3668   -0.4274 H   0  0  0  0  0  0  0  0  0  0  0  0
    6.1028   -2.7652   -0.5834 H   0  0  0  0  0  0  0  0  0  0  0  0
    3.9360   -3.5115   -0.3600 H   0  0  0  0  0  0  0  0  0  0  0  0
    1.3457   -1.8728    2.1381 H   0  0  0  0  0  0  0  0  0  0  0  0
    0.4691   -3.7731    3.4674 H   0  0  0  0  0  0  0  0  0  0  0  0
    0.9397   -6.5582    3.7011 H   0  0  0  0  0  0  0  0  0  0  0  0
    2.8290   -8.1293    0.1778 H   0  0  0  0  0  0  0  0  0  0  0  0
    2.9712   -5.8487   -0.8123 H   0  0  0  0  0  0  0  0  0  0  0  0
  1  2  2  0  0  0  0
  2  3  1  0  0  0  0
  2 10  1  0  0  0  0
  3  4  1  0  0  0  0
  3 22  1  0  0  0  0
  4  5  1  0  0  0  0
  4  9  2  0  0  0  0
  5  6  2  0  0  0  0
  6  7  1  0  0  0  0
  6 23  1  0  0  0  0
  7  8  2  0  0  0  0
  7 24  1  0  0  0  0
  8  9  1  0  0  0  0
  8 25  1  0  0  0  0
  9 10  1  0  0  0  0
 10 11  2  0  0  0  0
 11 12  1  0  0  0  0
 11 26  1  0  0  0  0
 12 13  2  0  0  0  0
 12 21  1  0  0  0  0
 13 14  1  0  0  0  0
 13 27  1  0  0  0  0
 14 15  1  0  0  0  0
 14 28  1  0  0  0  0
 15 16  1  0  0  0  0
 15 21  2  0  0  0  0
 16 17  2  0  0  0  0
 16 29  1  0  0  0  0
 17 18  1  0  0  0  0
 17 19  1  0  0  0  0
 19 20  2  0  0  0  0
 19 30  1  0  0  0  0
 20 21  1  0  0  0  0
 20 31  1  0  0  0  0
M  END
>  <Energy>
23.2429

$$$$

 OpenBabel04232614443D

 34 36  0  0  0  0  0  0  0  0999 V2000
    0.5513   -1.9432    3.6477 C   0  0  0  0  0  0  0  0  0  0  0  0
   -0.3135   -1.4777    2.5106 C   0  0  0  0  0  0  0  0  0  0  0  0
   -0.0963   -1.9697    1.2089 C   0  0  0  0  0  0  0  0  0  0  0  0
   -0.9291   -1.6025    0.1431 C   0  0  0  0  0  0  0  0  0  0  0  0
   -2.0309   -0.7909    0.3918 C   0  0  0  0  0  0  0  0  0  0  0  0
   -2.9672   -0.4443   -0.6035 N   0  0  0  0  0  0  0  0  0  0  0  0
   -2.6287    0.2254   -1.7625 C   0  0  0  0  0  0  0  0  0  0  0  0
   -1.5603    0.3580   -2.3226 O   0  0  0  0  0  0  0  0  0  0  0  0
   -3.8504    0.9365   -2.1795 C   0  0  0  0  0  0  0  0  0  0  0  0
   -4.0349    1.9456   -3.0997 C   0  0  0  0  0  0  0  0  0  0  0  0
   -5.2702    2.6178   -3.0801 C   0  0  0  0  0  0  0  0  0  0  0  0
   -6.3070    2.2533   -2.1891 C   0  0  0  0  0  0  0  0  0  0  0  0
   -7.4258    3.0791   -2.0351 N   0  0  0  0  0  0  0  0  0  0  0  0
   -6.0806    1.2376   -1.2643 C   0  0  0  0  0  0  0  0  0  0  0  0
   -4.8537    0.6045   -1.2941 C   0  0  0  0  0  0  0  0  0  0  0  0
   -4.3023   -0.3001   -0.3071 C   0  0  0  0  0  0  0  0  0  0  0  0
   -4.9695   -0.7515    0.6076 O   0  0  0  0  0  0  0  0  0  0  0  0
   -2.2159   -0.2628    1.6787 C   0  0  0  0  0  0  0  0  0  0  0  0
   -1.3449   -0.5529    2.7296 C   0  0  0  0  0  0  0  0  0  0  0  0
   -1.5870    0.1093    4.0564 C   0  0  0  0  0  0  0  0  0  0  0  0
    1.1875   -2.7829    3.3520 H   0  0  0  0  0  0  0  0  0  0  0  0
   -0.0775   -2.2922    4.4749 H   0  0  0  0  0  0  0  0  0  0  0  0
    1.1925   -1.1299    3.9994 H   0  0  0  0  0  0  0  0  0  0  0  0
    0.7224   -2.6623    1.0196 H   0  0  0  0  0  0  0  0  0  0  0  0
   -0.7429   -2.0043   -0.8487 H   0  0  0  0  0  0  0  0  0  0  0  0
   -3.2278    2.2692   -3.7509 H   0  0  0  0  0  0  0  0  0  0  0  0
   -5.4079    3.4778   -3.7358 H   0  0  0  0  0  0  0  0  0  0  0  0
   -7.6907    3.6050   -2.8612 H   0  0  0  0  0  0  0  0  0  0  0  0
   -8.2207    2.6337   -1.5844 H   0  0  0  0  0  0  0  0  0  0  0  0
   -6.8001    0.9944   -0.4882 H   0  0  0  0  0  0  0  0  0  0  0  0
   -3.0403    0.4238    1.8659 H   0  0  0  0  0  0  0  0  0  0  0  0
   -2.1957    1.0142    3.9360 H   0  0  0  0  0  0  0  0  0  0  0  0
   -0.6450    0.4312    4.5099 H   0  0  0  0  0  0  0  0  0  0  0  0
   -2.1124   -0.5705    4.7315 H   0  0  0  0  0  0  0  0  0  0  0  0
  1  2  1  0  0  0  0
  1 21  1  0  0  0  0
  1 22  1  0  0  0  0
  1 23  1  0  0  0  0
  2  3  1  0  0  0  0
  2 19  2  0  0  0  0
  3  4  2  0  0  0  0
  3 24  1  0  0  0  0
  4  5  1  0  0  0  0
  4 25  1  0  0  0  0
  5  6  1  0  0  0  0
  5 18  2  0  0  0  0
  6  7  1  0  0  0  0
  6 16  1  0  0  0  0
  7  8  2  0  0  0  0
  7  9  1  0  0  0  0
  9 10  1  0  0  0  0
  9 15  2  0  0  0  0
 10 11  2  0  0  0  0
 10 26  1  0  0  0  0
 11 12  1  0  0  0  0
 11 27  1  0  0  0  0
 12 13  1  0  0  0  0
 12 14  2  0  0  0  0
 13 28  1  0  0  0  0
 13 29  1  0  0  0  0
 14 15  1  0  0  0  0
 14 30  1  0  0  0  0
 15 16  1  0  0  0  0
 16 17  2  0  0  0  0
 18 19  1  0  0  0  0
 18 31  1  0  0  0  0
 19 20  1  0  0  0  0
 20 32  1  0  0  0  0
 20 33  1  0  0  0  0
 20 34  1  0  0  0  0
M  END
>  <Energy>
47.2104

$$$$

 OpenBabel04232614443D

 27 29  0  0  0  0  0  0  0  0999 V2000
    1.0636   -0.0351   -0.0688 N   0  0  0  0  0  0  0  0  0  0  0  0
    2.3245   -0.0351   -0.0688 C   0  0  0  0  0  0  0  0  0  0  0  0
    3.8445   -0.0351   -0.0688 C   0  0  0  0  0  0  0  0  0  0  0  0
    4.5334   -1.1937    0.0269 C   0  0  0  0  0  0  0  0  0  0  0  0
    3.9493   -2.4270    0.2207 O   0  0  0  0  0  0  0  0  0  0  0  0
    5.9679   -1.2043   -0.0545 C   0  0  0  0  0  0  0  0  0  0  0  0
    6.5740    0.0260   -0.1271 C   0  0  0  0  0  0  0  0  0  0  0  0
    5.9375    1.2338   -0.1685 N   0  0  0  0  0  0  0  0  0  0  0  0
    4.5616    1.2725   -0.1802 C   0  0  0  0  0  0  0  0  0  0  0  0
    3.9551    2.3348   -0.2629 O   0  0  0  0  0  0  0  0  0  0  0  0
    8.2489   -0.0069   -0.1876 S   0  0  0  0  0  0  0  0  0  0  0  0
    8.2293   -1.7236   -0.1762 C   0  0  0  0  0  0  0  0  0  0  0  0
    6.9470   -2.2636   -0.1051 C   0  0  0  0  0  0  0  0  0  0  0  0
    6.7731   -3.7216   -0.1226 C   0  0  0  0  0  0  0  0  0  0  0  0
    7.6022   -4.5535    0.6461 C   0  0  0  0  0  0  0  0  0  0  0  0
    7.4320   -5.9415    0.6355 C   0  0  0  0  0  0  0  0  0  0  0  0
    6.4197   -6.5149   -0.1300 C   0  0  0  0  0  0  0  0  0  0  0  0
    5.5990   -5.7044   -0.9093 C   0  0  0  0  0  0  0  0  0  0  0  0
    5.7920   -4.3203   -0.9236 C   0  0  0  0  0  0  0  0  0  0  0  0
    2.9832   -2.3644    0.3198 H   0  0  0  0  0  0  0  0  0  0  0  0
    6.4612    2.0971   -0.2365 H   0  0  0  0  0  0  0  0  0  0  0  0
    9.1712   -2.2523   -0.2367 H   0  0  0  0  0  0  0  0  0  0  0  0
    8.3876   -4.1334    1.2701 H   0  0  0  0  0  0  0  0  0  0  0  0
    8.0849   -6.5735    1.2320 H   0  0  0  0  0  0  0  0  0  0  0  0
    6.2712   -7.5916   -0.1210 H   0  0  0  0  0  0  0  0  0  0  0  0
    4.8052   -6.1460   -1.5060 H   0  0  0  0  0  0  0  0  0  0  0  0
    5.1521   -3.7142   -1.5592 H   0  0  0  0  0  0  0  0  0  0  0  0
  1  2  3  0  0  0  0
  2  3  1  0  0  0  0
  3  4  2  0  0  0  0
  3  9  1  0  0  0  0
  4  5  1  0  0  0  0
  4  6  1  0  0  0  0
  5 20  1  0  0  0  0
  6  7  2  0  0  0  0
  6 13  1  0  0  0  0
  7  8  1  0  0  0  0
  7 11  1  0  0  0  0
  8  9  1  0  0  0  0
  8 21  1  0  0  0  0
  9 10  2  0  0  0  0
 11 12  1  0  0  0  0
 12 13  2  0  0  0  0
 12 22  1  0  0  0  0
 13 14  1  0  0  0  0
 14 15  1  0  0  0  0
 14 19  2  0  0  0  0
 15 16  2  0  0  0  0
 15 23  1  0  0  0  0
 16 17  1  0  0  0  0
 16 24  1  0  0  0  0
 17 18  2  0  0  0  0
 17 25  1  0  0  0  0
 18 19  1  0  0  0  0
 18 26  1  0  0  0  0
 19 27  1  0  0  0  0
M  END
>  <Energy>
162.006

$$$$

 OpenBabel04232614443D

 24 26  0  0  0  0  0  0  0  0999 V2000
    1.0330   -0.0256    0.1295 N   0  0  0  0  0  0  0  0  0  0  0  0
    2.4210   -0.0335   -0.0564 C   0  0  0  0  0  0  0  0  0  0  0  0
    3.1218   -1.2593   -0.0279 C   0  0  0  0  0  0  0  0  0  0  0  0
    4.5237   -1.3141   -0.0631 C   0  0  0  0  0  0  0  0  0  0  0  0
    5.2223   -0.1225   -0.0860 C   0  0  0  0  0  0  0  0  0  0  0  0
    4.5156    1.0901   -0.0707 C   0  0  0  0  0  0  0  0  0  0  0  0
    3.1358    1.1661   -0.0338 C   0  0  0  0  0  0  0  0  0  0  0  0
    5.5078    2.1871   -0.0714 C   0  0  0  0  0  0  0  0  0  0  0  0
    5.2781    3.3772   -0.0657 O   0  0  0  0  0  0  0  0  0  0  0  0
    6.8408    1.5447   -0.0841 C   0  0  0  0  0  0  0  0  0  0  0  0
    8.0913    2.1325   -0.0800 C   0  0  0  0  0  0  0  0  0  0  0  0
    9.1946    1.2767   -0.0819 C   0  0  0  0  0  0  0  0  0  0  0  0
    9.0135   -0.1203   -0.0878 C   0  0  0  0  0  0  0  0  0  0  0  0
   10.5334   -1.2489   -0.0825 Br  0  0  0  0  0  0  0  0  0  0  0  0
    7.7363   -0.6956   -0.0935 C   0  0  0  0  0  0  0  0  0  0  0  0
    6.6429    0.1530   -0.0926 C   0  0  0  0  0  0  0  0  0  0  0  0
    0.5621   -0.8630   -0.1986 H   0  0  0  0  0  0  0  0  0  0  0  0
    0.5757    0.8241   -0.1884 H   0  0  0  0  0  0  0  0  0  0  0  0
    2.5659   -2.1933    0.0294 H   0  0  0  0  0  0  0  0  0  0  0  0
    5.0320   -2.2725   -0.0505 H   0  0  0  0  0  0  0  0  0  0  0  0
    2.6420    2.1301    0.0173 H   0  0  0  0  0  0  0  0  0  0  0  0
    8.2037    3.2115   -0.0719 H   0  0  0  0  0  0  0  0  0  0  0  0
   10.1970    1.6996   -0.0759 H   0  0  0  0  0  0  0  0  0  0  0  0
    7.6099   -1.7733   -0.0938 H   0  0  0  0  0  0  0  0  0  0  0  0
  1  2  1  0  0  0  0
  1 17  1  0  0  0  0
  1 18  1  0  0  0  0
  2  3  1  0  0  0  0
  2  7  2  0  0  0  0
  3  4  2  0  0  0  0
  3 19  1  0  0  0  0
  4  5  1  0  0  0  0
  4 20  1  0  0  0  0
  5  6  2  0  0  0  0
  5 16  1  0  0  0  0
  6  7  1  0  0  0  0
  6  8  1  0  0  0  0
  7 21  1  0  0  0  0
  8  9  2  0  0  0  0
  8 10  1  0  0  0  0
 10 11  1  0  0  0  0
 10 16  2  0  0  0  0
 11 12  2  0  0  0  0
 11 22  1  0  0  0  0
 12 13  1  0  0  0  0
 12 23  1  0  0  0  0
 13 14  1  0  0  0  0
 13 15  2  0  0  0  0
 15 16  1  0  0  0  0
 15 24  1  0  0  0  0
M  END
>  <Energy>
53.1821

$$$$

 OpenBabel04232614443D

 29 31  0  0  0  0  0  0  0  0999 V2000
   -2.0773   -0.7945    1.5988 C   0  0  0  0  0  0  0  0  0  0  0  0
   -0.9841   -0.1676    0.8061 C   0  0  0  0  0  0  0  0  0  0  0  0
   -0.4102    0.9477    1.1304 N   0  0  0  0  0  0  0  0  0  0  0  0
    0.5260    1.1966    0.1408 N   0  0  0  0  0  0  0  0  0  0  0  0
    1.3215    2.3285    0.1160 C   0  0  0  0  0  0  0  0  0  0  0  0
    2.2073    2.6651   -0.7945 N   0  0  0  0  0  0  0  0  0  0  0  0
    2.7827    3.8893   -0.4822 C   0  0  0  0  0  0  0  0  0  0  0  0
    3.7605    4.5220   -1.3625 C   0  0  0  0  0  0  0  0  0  0  0  0
    3.7585    4.2153   -2.7303 C   0  0  0  0  0  0  0  0  0  0  0  0
    4.6410    4.8542   -3.6056 C   0  0  0  0  0  0  0  0  0  0  0  0
    5.5449    5.7972   -3.1209 C   0  0  0  0  0  0  0  0  0  0  0  0
    5.5787    6.0906   -1.7597 C   0  0  0  0  0  0  0  0  0  0  0  0
    4.6942    5.4544   -0.8840 C   0  0  0  0  0  0  0  0  0  0  0  0
    2.3055    4.4682    0.6774 C   0  0  0  0  0  0  0  0  0  0  0  0
    1.1379    3.4516    1.4044 S   0  0  0  0  0  0  0  0  0  0  0  0
    0.5721    0.2265   -0.8671 C   0  0  0  0  0  0  0  0  0  0  0  0
    1.2411    0.1345   -1.8811 O   0  0  0  0  0  0  0  0  0  0  0  0
   -0.4537   -0.7883   -0.4446 C   0  0  0  0  0  0  0  0  0  0  0  0
   -2.3603   -0.1473    2.4335 H   0  0  0  0  0  0  0  0  0  0  0  0
   -1.7397   -1.7580    1.9878 H   0  0  0  0  0  0  0  0  0  0  0  0
   -2.9475   -0.9497    0.9559 H   0  0  0  0  0  0  0  0  0  0  0  0
    3.0562    3.4819   -3.1240 H   0  0  0  0  0  0  0  0  0  0  0  0
    4.6167    4.6163   -4.6658 H   0  0  0  0  0  0  0  0  0  0  0  0
    6.2260    6.2991   -3.8032 H   0  0  0  0  0  0  0  0  0  0  0  0
    6.2921    6.8164   -1.3777 H   0  0  0  0  0  0  0  0  0  0  0  0
    4.7533    5.6955    0.1739 H   0  0  0  0  0  0  0  0  0  0  0  0
    2.5562    5.4210    1.1193 H   0  0  0  0  0  0  0  0  0  0  0  0
    0.0165   -1.7485   -0.2243 H   0  0  0  0  0  0  0  0  0  0  0  0
   -1.2444   -0.8802   -1.1912 H   0  0  0  0  0  0  0  0  0  0  0  0
  1  2  1  0  0  0  0
  1 19  1  0  0  0  0
  1 20  1  0  0  0  0
  1 21  1  0  0  0  0
  2  3  2  0  0  0  0
  2 18  1  0  0  0  0
  3  4  1  0  0  0  0
  4  5  1  0  0  0  0
  4 16  1  0  0  0  0
  5  6  2  0  0  0  0
  5 15  1  0  0  0  0
  6  7  1  0  0  0  0
  7  8  1  0  0  0  0
  7 14  2  0  0  0  0
  8  9  1  0  0  0  0
  8 13  2  0  0  0  0
  9 10  2  0  0  0  0
  9 22  1  0  0  0  0
 10 11  1  0  0  0  0
 10 23  1  0  0  0  0
 11 12  2  0  0  0  0
 11 24  1  0  0  0  0
 12 13  1  0  0  0  0
 12 25  1  0  0  0  0
 13 26  1  0  0  0  0
 14 15  1  0  0  0  0
 14 27  1  0  0  0  0
 16 17  2  0  0  0  0
 16 18  1  0  0  0  0
 18 28  1  0  0  0  0
 18 29  1  0  0  0  0
M  END
>  <Energy>
52.66

$$$$

 OpenBabel04232614443D

 20 20  0  0  0  0  0  0  0  0999 V2000
    2.4843   -2.8106    1.7354 O   0  0  0  0  0  0  0  0  0  0  0  0
    2.1879   -1.7010    1.3267 C   0  0  0  0  0  0  0  0  0  0  0  0
    0.7523   -1.4501    0.9474 C   0  0  0  0  0  0  0  0  0  0  0  0
   -0.1823   -1.4762    1.8380 N   0  0  0  0  0  0  0  0  0  0  0  0
   -1.4135   -1.2868    1.1993 O   0  0  0  0  0  0  0  0  0  0  0  0
    3.0151   -0.6173    1.1019 N   0  0  0  0  0  0  0  0  0  0  0  0
    4.4331   -0.6193    1.1609 C   0  0  0  0  0  0  0  0  0  0  0  0
    5.1810   -1.7907    1.3288 C   0  0  0  0  0  0  0  0  0  0  0  0
    6.5818   -1.7579    1.3394 C   0  0  0  0  0  0  0  0  0  0  0  0
    7.4183   -3.2587    1.5294 Cl  0  0  0  0  0  0  0  0  0  0  0  0
    7.2540   -0.5427    1.1851 C   0  0  0  0  0  0  0  0  0  0  0  0
    8.9777   -0.4324    1.1796 Cl  0  0  0  0  0  0  0  0  0  0  0  0
    6.5247    0.6363    1.0184 C   0  0  0  0  0  0  0  0  0  0  0  0
    5.1268    0.5949    1.0018 C   0  0  0  0  0  0  0  0  0  0  0  0
    4.2737    2.0839    0.7770 Cl  0  0  0  0  0  0  0  0  0  0  0  0
    0.5787   -1.2783   -0.1277 H   0  0  0  0  0  0  0  0  0  0  0  0
   -2.0542   -1.5209    1.8994 H   0  0  0  0  0  0  0  0  0  0  0  0
    2.5789    0.2763    0.8937 H   0  0  0  0  0  0  0  0  0  0  0  0
    4.6997   -2.7585    1.4374 H   0  0  0  0  0  0  0  0  0  0  0  0
    7.0461    1.5827    0.8972 H   0  0  0  0  0  0  0  0  0  0  0  0
  1  2  2  0  0  0  0
  2  3  1  0  0  0  0
  2  6  1  0  0  0  0
  3  4  2  0  0  0  0
  3 16  1  0  0  0  0
  4  5  1  0  0  0  0
  5 17  1  0  0  0  0
  6  7  1  0  0  0  0
  6 18  1  0  0  0  0
  7  8  1  0  0  0  0
  7 14  2  0  0  0  0
  8  9  2  0  0  0  0
  8 19  1  0  0  0  0
  9 10  1  0  0  0  0
  9 11  1  0  0  0  0
 11 12  1  0  0  0  0
 11 13  2  0  0  0  0
 13 14  1  0  0  0  0
 13 20  1  0  0  0  0
 14 15  1  0  0  0  0
M  END
>  <Energy>
60.2395

$$$$

 OpenBabel04232614443D

 35 37  0  0  0  0  0  0  0  0999 V2000
    1.1044    0.1038   -0.0810 C   0  0  0  0  0  0  0  0  0  0  0  0
    2.6104    0.0722   -0.1122 C   0  0  0  0  0  0  0  0  0  0  0  0
    3.2849    1.1868   -0.1396 N   0  0  0  0  0  0  0  0  0  0  0  0
    4.6931    1.1754   -0.1551 N   0  0  0  0  0  0  0  0  0  0  0  0
    5.3572    2.4924   -0.0682 C   0  0  0  0  0  0  0  0  0  0  0  0
    4.9824    3.2253    1.2305 C   0  0  0  0  0  0  0  0  0  0  0  0
    5.7098    4.5635    1.3479 C   0  0  0  0  0  0  0  0  0  0  0  0
    5.4530    5.4466    0.1305 C   0  0  0  0  0  0  0  0  0  0  0  0
    5.8182    4.7282   -1.1663 C   0  0  0  0  0  0  0  0  0  0  0  0
    5.0949    3.3828   -1.2947 C   0  0  0  0  0  0  0  0  0  0  0  0
    5.4881    0.0059   -0.1379 C   0  0  0  0  0  0  0  0  0  0  0  0
    6.7207    0.0150   -0.1289 O   0  0  0  0  0  0  0  0  0  0  0  0
    4.7271   -1.2320   -0.1177 C   0  0  0  0  0  0  0  0  0  0  0  0
    5.2166   -2.5238   -0.0975 C   0  0  0  0  0  0  0  0  0  0  0  0
    6.4964   -2.9373   -0.0962 N   0  0  0  0  0  0  0  0  0  0  0  0
    3.9465   -3.6741   -0.0684 S   0  0  0  0  0  0  0  0  0  0  0  0
    2.7500   -2.4556   -0.0757 C   0  0  0  0  0  0  0  0  0  0  0  0
    3.3052   -1.1963   -0.1030 C   0  0  0  0  0  0  0  0  0  0  0  0
    0.7336    1.1316   -0.0720 H   0  0  0  0  0  0  0  0  0  0  0  0
    0.7447   -0.4100    0.8165 H   0  0  0  0  0  0  0  0  0  0  0  0
    0.7094   -0.4101   -0.9626 H   0  0  0  0  0  0  0  0  0  0  0  0
    6.4401    2.3201   -0.0341 H   0  0  0  0  0  0  0  0  0  0  0  0
    5.2271    2.5986    2.0960 H   0  0  0  0  0  0  0  0  0  0  0  0
    3.9002    3.4037    1.2667 H   0  0  0  0  0  0  0  0  0  0  0  0
    6.7879    4.3865    1.4497 H   0  0  0  0  0  0  0  0  0  0  0  0
    5.3848    5.0824    2.2565 H   0  0  0  0  0  0  0  0  0  0  0  0
    6.0324    6.3731    0.2185 H   0  0  0  0  0  0  0  0  0  0  0  0
    4.3947    5.7337    0.1036 H   0  0  0  0  0  0  0  0  0  0  0  0
    6.9030    4.5639   -1.1939 H   0  0  0  0  0  0  0  0  0  0  0  0
    5.5735    5.3675   -2.0222 H   0  0  0  0  0  0  0  0  0  0  0  0
    5.4338    2.8760   -2.2062 H   0  0  0  0  0  0  0  0  0  0  0  0
    4.0194    3.5628   -1.4157 H   0  0  0  0  0  0  0  0  0  0  0  0
    7.2709   -2.2748   -0.0941 H   0  0  0  0  0  0  0  0  0  0  0  0
    6.7418   -3.9209   -0.0741 H   0  0  0  0  0  0  0  0  0  0  0  0
    1.7056   -2.7354   -0.0596 H   0  0  0  0  0  0  0  0  0  0  0  0
  1  2  1  0  0  0  0
  1 19  1  0  0  0  0
  1 20  1  0  0  0  0
  1 21  1  0  0  0  0
  2  3  2  0  0  0  0
  2 18  1  0  0  0  0
  3  4  1  0  0  0  0
  4  5  1  0  0  0  0
  4 11  1  0  0  0  0
  5  6  1  0  0  0  0
  5 10  1  0  0  0  0
  5 22  1  0  0  0  0
  6  7  1  0  0  0  0
  6 23  1  0  0  0  0
  6 24  1  0  0  0  0
  7  8  1  0  0  0  0
  7 25  1  0  0  0  0
  7 26  1  0  0  0  0
  8  9  1  0  0  0  0
  8 27  1  0  0  0  0
  8 28  1  0  0  0  0
  9 10  1  0  0  0  0
  9 29  1  0  0  0  0
  9 30  1  0  0  0  0
 10 31  1  0  0  0  0
 10 32  1  0  0  0  0
 11 12  2  0  0  0  0
 11 13  1  0  0  0  0
 13 14  2  0  0  0  0
 13 18  1  0  0  0  0
 14 15  1  0  0  0  0
 14 16  1  0  0  0  0
 15 33  1  0  0  0  0
 15 34  1  0  0  0  0
 16 17  1  0  0  0  0
 17 18  2  0  0  0  0
 17 35  1  0  0  0  0
M  END
>  <Energy>
60.7803

$$$$

 OpenBabel04232614443D

 30 32  0  0  0  0  0  0  0  0999 V2000
    1.1678    0.3905   -0.2435 C   0  0  0  0  0  0  0  0  0  0  0  0
    2.5724   -0.1328    0.0188 C   0  0  0  0  0  0  0  0  0  0  0  0
    3.0232   -1.0190   -1.0513 N   0  0  0  0  0  0  0  0  0  0  0  0
    2.7729   -2.3870   -0.9632 C   0  0  0  0  0  0  0  0  0  0  0  0
    3.1038   -3.2356   -1.9522 C   0  0  0  0  0  0  0  0  0  0  0  0
    3.7215   -2.7538   -3.1482 C   0  0  0  0  0  0  0  0  0  0  0  0
    3.9713   -1.3993   -3.2234 C   0  0  0  0  0  0  0  0  0  0  0  0
    4.7084   -0.9578   -4.6830 S   0  0  0  0  0  0  0  0  0  0  0  0
    4.6761   -2.5688   -5.2430 C   0  0  0  0  0  0  0  0  0  0  0  0
    5.1618   -2.8541   -6.4671 N   0  0  0  0  0  0  0  0  0  0  0  0
    5.0721   -4.1491   -6.8050 C   0  0  0  0  0  0  0  0  0  0  0  0
    4.5419   -5.1494   -6.0106 C   0  0  0  0  0  0  0  0  0  0  0  0
    4.0487   -4.8256   -4.7426 C   0  0  0  0  0  0  0  0  0  0  0  0
    3.4991   -5.7365   -3.8749 O   0  0  0  0  0  0  0  0  0  0  0  0
    3.4173   -7.0883   -4.3153 C   0  0  0  0  0  0  0  0  0  0  0  0
    4.1167   -3.4671   -4.3312 C   0  0  0  0  0  0  0  0  0  0  0  0
    3.6349   -0.4376   -2.1880 C   0  0  0  0  0  0  0  0  0  0  0  0
    3.8405    0.7722   -2.2759 O   0  0  0  0  0  0  0  0  0  0  0  0
    0.8670    1.0901    0.5418 H   0  0  0  0  0  0  0  0  0  0  0  0
    0.4430   -0.4302   -0.2675 H   0  0  0  0  0  0  0  0  0  0  0  0
    1.1115    0.9112   -1.2057 H   0  0  0  0  0  0  0  0  0  0  0  0
    2.6080   -0.6669    0.9755 H   0  0  0  0  0  0  0  0  0  0  0  0
    3.2632    0.7144    0.1003 H   0  0  0  0  0  0  0  0  0  0  0  0
    2.2934   -2.7428   -0.0557 H   0  0  0  0  0  0  0  0  0  0  0  0
    2.8944   -4.2963   -1.8460 H   0  0  0  0  0  0  0  0  0  0  0  0
    5.4591   -4.3840   -7.7942 H   0  0  0  0  0  0  0  0  0  0  0  0
    4.5263   -6.1577   -6.4047 H   0  0  0  0  0  0  0  0  0  0  0  0
    2.9530   -7.6753   -3.5172 H   0  0  0  0  0  0  0  0  0  0  0  0
    4.4139   -7.5041   -4.4976 H   0  0  0  0  0  0  0  0  0  0  0  0
    2.7836   -7.1759   -5.2041 H   0  0  0  0  0  0  0  0  0  0  0  0
  1  2  1  0  0  0  0
  1 19  1  0  0  0  0
  1 20  1  0  0  0  0
  1 21  1  0  0  0  0
  2  3  1  0  0  0  0
  2 22  1  0  0  0  0
  2 23  1  0  0  0  0
  3  4  1  0  0  0  0
  3 17  1  0  0  0  0
  4  5  2  0  0  0  0
  4 24  1  0  0  0  0
  5  6  1  0  0  0  0
  5 25  1  0  0  0  0
  6  7  2  0  0  0  0
  6 16  1  0  0  0  0
  7  8  1  0  0  0  0
  7 17  1  0  0  0  0
  8  9  1  0  0  0  0
  9 10  1  0  0  0  0
  9 16  2  0  0  0  0
 10 11  2  0  0  0  0
 11 12  1  0  0  0  0
 11 26  1  0  0  0  0
 12 13  2  0  0  0  0
 12 27  1  0  0  0  0
 13 14  1  0  0  0  0
 13 16  1  0  0  0  0
 14 15  1  0  0  0  0
 15 28  1  0  0  0  0
 15 29  1  0  0  0  0
 15 30  1  0  0  0  0
 17 18  2  0  0  0  0
M  END
>  <Energy>
34.0976

$$$$

 OpenBabel04232614443D

 21 23  0  0  0  0  0  0  0  0999 V2000
    1.2873    0.0280    0.0123 N   0  0  0  0  0  0  0  0  0  0  0  0
    2.6175   -0.1100    0.0361 C   0  0  0  0  0  0  0  0  0  0  0  0
    3.2177   -1.2850    0.0449 N   0  0  0  0  0  0  0  0  0  0  0  0
    4.5543   -1.0538    0.0536 C   0  0  0  0  0  0  0  0  0  0  0  0
    4.9723    0.2499    0.0555 C   0  0  0  0  0  0  0  0  0  0  0  0
    3.6647    1.2904    0.0497 S   0  0  0  0  0  0  0  0  0  0  0  0
    6.4505    0.4193    0.0572 C   0  0  0  0  0  0  0  0  0  0  0  0
    6.8647   -1.0522    0.0563 C   0  0  0  0  0  0  0  0  0  0  0  0
    8.1335   -1.6016    0.0548 C   0  0  0  0  0  0  0  0  0  0  0  0
    8.2311   -2.9981    0.0519 C   0  0  0  0  0  0  0  0  0  0  0  0
    9.9452   -3.8028    0.0519 Br  0  0  0  0  0  0  0  0  0  0  0  0
    7.0876   -3.8232    0.0496 C   0  0  0  0  0  0  0  0  0  0  0  0
    5.8061   -3.2660    0.0514 C   0  0  0  0  0  0  0  0  0  0  0  0
    5.7144   -1.8911    0.0545 C   0  0  0  0  0  0  0  0  0  0  0  0
    0.7048   -0.7976    0.0609 H   0  0  0  0  0  0  0  0  0  0  0  0
    0.8366    0.9300    0.0691 H   0  0  0  0  0  0  0  0  0  0  0  0
    6.8051    0.9191    0.9624 H   0  0  0  0  0  0  0  0  0  0  0  0
    6.8074    0.9216   -0.8453 H   0  0  0  0  0  0  0  0  0  0  0  0
    9.0175   -0.9730    0.0560 H   0  0  0  0  0  0  0  0  0  0  0  0
    7.1936   -4.9057    0.0479 H   0  0  0  0  0  0  0  0  0  0  0  0
    4.9164   -3.8873    0.0476 H   0  0  0  0  0  0  0  0  0  0  0  0
  1  2  1  0  0  0  0
  1 15  1  0  0  0  0
  1 16  1  0  0  0  0
  2  3  2  0  0  0  0
  2  6  1  0  0  0  0
  3  4  1  0  0  0  0
  4  5  2  0  0  0  0
  4 14  1  0  0  0  0
  5  6  1  0  0  0  0
  5  7  1  0  0  0  0
  7  8  1  0  0  0  0
  7 17  1  0  0  0  0
  7 18  1  0  0  0  0
  8  9  1  0  0  0  0
  8 14  2  0  0  0  0
  9 10  2  0  0  0  0
  9 19  1  0  0  0  0
 10 11  1  0  0  0  0
 10 12  1  0  0  0  0
 12 13  2  0  0  0  0
 12 20  1  0  0  0  0
 13 14  1  0  0  0  0
 13 21  1  0  0  0  0
M  END
>  <Energy>
3.61943

$$$$

 OpenBabel04232614443D

 32 35  0  0  0  0  0  0  0  0999 V2000
    1.9808    0.4826   -1.3995 N   0  0  0  0  0  0  0  0  0  0  0  0
    3.0816   -0.3944   -1.4252 C   0  0  0  0  0  0  0  0  0  0  0  0
    2.8548   -1.7594   -1.7694 C   0  0  0  0  0  0  0  0  0  0  0  0
    3.8485   -2.7576   -1.7222 C   0  0  0  0  0  0  0  0  0  0  0  0
    5.0960   -2.3085   -1.2616 C   0  0  0  0  0  0  0  0  0  0  0  0
    6.2293   -2.9968   -1.0946 N   0  0  0  0  0  0  0  0  0  0  0  0
    7.1048   -2.0654   -0.6210 N   0  0  0  0  0  0  0  0  0  0  0  0
    8.4458   -2.4425   -0.2762 C   0  0  0  0  0  0  0  0  0  0  0  0
    8.7272   -3.8272   -0.3042 C   0  0  0  0  0  0  0  0  0  0  0  0
    9.9714   -4.3165    0.0678 C   0  0  0  0  0  0  0  0  0  0  0  0
   10.9607   -3.4318    0.4704 C   0  0  0  0  0  0  0  0  0  0  0  0
   10.7356   -2.0483    0.4842 C   0  0  0  0  0  0  0  0  0  0  0  0
   11.7935   -1.2107    0.8755 C   0  0  0  0  0  0  0  0  0  0  0  0
   11.6567    0.1729    0.8816 C   0  0  0  0  0  0  0  0  0  0  0  0
   10.4528    0.7357    0.4947 C   0  0  0  0  0  0  0  0  0  0  0  0
    9.3859   -0.0868    0.1145 C   0  0  0  0  0  0  0  0  0  0  0  0
    9.4725   -1.5090    0.1017 C   0  0  0  0  0  0  0  0  0  0  0  0
    6.6053   -0.8165   -0.4659 N   0  0  0  0  0  0  0  0  0  0  0  0
    5.3298   -0.9312   -0.8599 C   0  0  0  0  0  0  0  0  0  0  0  0
    4.3177    0.0462   -0.9067 C   0  0  0  0  0  0  0  0  0  0  0  0
    1.2451    0.2431   -2.0582 H   0  0  0  0  0  0  0  0  0  0  0  0
    2.2345    1.4649   -1.4498 H   0  0  0  0  0  0  0  0  0  0  0  0
    1.8570   -2.0592   -2.0901 H   0  0  0  0  0  0  0  0  0  0  0  0
    3.6652   -3.7863   -2.0007 H   0  0  0  0  0  0  0  0  0  0  0  0
    7.9692   -4.5517   -0.6018 H   0  0  0  0  0  0  0  0  0  0  0  0
   10.1657   -5.3858    0.0511 H   0  0  0  0  0  0  0  0  0  0  0  0
   11.9271   -3.8370    0.7661 H   0  0  0  0  0  0  0  0  0  0  0  0
   12.7506   -1.6347    1.1746 H   0  0  0  0  0  0  0  0  0  0  0  0
   12.4888    0.8044    1.1790 H   0  0  0  0  0  0  0  0  0  0  0  0
   10.3342    1.8160    0.4810 H   0  0  0  0  0  0  0  0  0  0  0  0
    8.4799    0.4273   -0.1907 H   0  0  0  0  0  0  0  0  0  0  0  0
    4.4912    1.0588   -0.5700 H   0  0  0  0  0  0  0  0  0  0  0  0
  1  2  1  0  0  0  0
  1 21  1  0  0  0  0
  1 22  1  0  0  0  0
  2  3  1  0  0  0  0
  2 20  2  0  0  0  0
  3  4  2  0  0  0  0
  3 23  1  0  0  0  0
  4  5  1  0  0  0  0
  4 24  1  0  0  0  0
  5  6  2  0  0  0  0
  5 19  1  0  0  0  0
  6  7  1  0  0  0  0
  7  8  1  0  0  0  0
  7 18  1  0  0  0  0
  8  9  1  0  0  0  0
  8 17  2  0  0  0  0
  9 10  2  0  0  0  0
  9 25  1  0  0  0  0
 10 11  1  0  0  0  0
 10 26  1  0  0  0  0
 11 12  2  0  0  0  0
 11 27  1  0  0  0  0
 12 13  1  0  0  0  0
 12 17  1  0  0  0  0
 13 14  2  0  0  0  0
 13 28  1  0  0  0  0
 14 15  1  0  0  0  0
 14 29  1  0  0  0  0
 15 16  2  0  0  0  0
 15 30  1  0  0  0  0
 16 17  1  0  0  0  0
 16 31  1  0  0  0  0
 18 19  2  0  0  0  0
 19 20  1  0  0  0  0
 20 32  1  0  0  0  0
M  END
>  <Energy>
67.7687

$$$$

 OpenBabel04232614443D

 36 38  0  0  0  0  0  0  0  0999 V2000
   -1.7469   -2.1802   -1.0456 C   0  0  0  0  0  0  0  0  0  0  0  0
   -0.9537   -1.0085   -0.5256 C   0  0  0  0  0  0  0  0  0  0  0  0
   -1.5658    0.2602   -0.5274 C   0  0  0  0  0  0  0  0  0  0  0  0
   -0.8874    1.3859   -0.0654 C   0  0  0  0  0  0  0  0  0  0  0  0
    0.4200    1.2654    0.3878 C   0  0  0  0  0  0  0  0  0  0  0  0
    1.0462    0.0174    0.3785 C   0  0  0  0  0  0  0  0  0  0  0  0
    0.3725   -1.1413   -0.0543 C   0  0  0  0  0  0  0  0  0  0  0  0
    1.0649   -2.4420   -0.0253 C   0  0  0  0  0  0  0  0  0  0  0  0
    0.9781   -3.3925   -0.9385 N   0  0  0  0  0  0  0  0  0  0  0  0
    1.7679   -4.4471   -0.5557 N   0  0  0  0  0  0  0  0  0  0  0  0
    2.3438   -4.1545    0.5979 C   0  0  0  0  0  0  0  0  0  0  0  0
    3.2464   -5.0356    1.3681 C   0  0  0  0  0  0  0  0  0  0  0  0
    4.3074   -4.4759    2.1098 C   0  0  0  0  0  0  0  0  0  0  0  0
    5.1236   -5.2591    2.9271 C   0  0  0  0  0  0  0  0  0  0  0  0
    4.9162   -6.6296    2.9947 C   0  0  0  0  0  0  0  0  0  0  0  0
    3.9164   -7.2188    2.2221 C   0  0  0  0  0  0  0  0  0  0  0  0
    3.0822   -6.4379    1.3955 C   0  0  0  0  0  0  0  0  0  0  0  0
    2.0451   -7.1524    0.5653 C   0  0  0  0  0  0  0  0  0  0  0  0
    1.8943   -2.9012    0.9855 N   0  0  0  0  0  0  0  0  0  0  0  0
    2.1570   -2.2354    2.2485 N   0  0  0  0  0  0  0  0  0  0  0  0
   -2.7876   -1.9004   -1.2459 H   0  0  0  0  0  0  0  0  0  0  0  0
   -1.7706   -2.9895   -0.3092 H   0  0  0  0  0  0  0  0  0  0  0  0
   -1.3207   -2.5414   -1.9868 H   0  0  0  0  0  0  0  0  0  0  0  0
   -2.5836    0.3776   -0.8943 H   0  0  0  0  0  0  0  0  0  0  0  0
   -1.3761    2.3567   -0.0728 H   0  0  0  0  0  0  0  0  0  0  0  0
    0.9599    2.1421    0.7376 H   0  0  0  0  0  0  0  0  0  0  0  0
    2.0815   -0.0356    0.7083 H   0  0  0  0  0  0  0  0  0  0  0  0
    4.5165   -3.4082    2.0573 H   0  0  0  0  0  0  0  0  0  0  0  0
    5.9161   -4.7969    3.5066 H   0  0  0  0  0  0  0  0  0  0  0  0
    5.5443   -7.2461    3.6349 H   0  0  0  0  0  0  0  0  0  0  0  0
    3.7897   -8.2987    2.2636 H   0  0  0  0  0  0  0  0  0  0  0  0
    2.0727   -8.2309    0.7344 H   0  0  0  0  0  0  0  0  0  0  0  0
    2.2350   -6.9930   -0.4992 H   0  0  0  0  0  0  0  0  0  0  0  0
    1.0413   -6.8086    0.8246 H   0  0  0  0  0  0  0  0  0  0  0  0
    2.3346   -2.9175    2.9835 H   0  0  0  0  0  0  0  0  0  0  0  0
    1.3269   -1.7309    2.5597 H   0  0  0  0  0  0  0  0  0  0  0  0
  1  2  1  0  0  0  0
  1 21  1  0  0  0  0
  1 22  1  0  0  0  0
  1 23  1  0  0  0  0
  2  3  1  0  0  0  0
  2  7  2  0  0  0  0
  3  4  2  0  0  0  0
  3 24  1  0  0  0  0
  4  5  1  0  0  0  0
  4 25  1  0  0  0  0
  5  6  2  0  0  0  0
  5 26  1  0  0  0  0
  6  7  1  0  0  0  0
  6 27  1  0  0  0  0
  7  8  1  0  0  0  0
  8  9  2  0  0  0  0
  8 19  1  0  0  0  0
  9 10  1  0  0  0  0
 10 11  2  0  0  0  0
 11 12  1  0  0  0  0
 11 19  1  0  0  0  0
 12 13  1  0  0  0  0
 12 17  2  0  0  0  0
 13 14  2  0  0  0  0
 13 28  1  0  0  0  0
 14 15  1  0  0  0  0
 14 29  1  0  0  0  0
 15 16  2  0  0  0  0
 15 30  1  0  0  0  0
 16 17  1  0  0  0  0
 16 31  1  0  0  0  0
 17 18  1  0  0  0  0
 18 32  1  0  0  0  0
 18 33  1  0  0  0  0
 18 34  1  0  0  0  0
 19 20  1  0  0  0  0
 20 35  1  0  0  0  0
 20 36  1  0  0  0  0
M  END
>  <Energy>
84.5865

$$$$

 OpenBabel04232614443D

 19 20  0  0  0  0  0  0  0  0999 V2000
    1.0604   -0.1260   -0.0814 N   0  0  0  0  0  0  0  0  0  0  0  0
    2.3212   -0.1413   -0.0986 C   0  0  0  0  0  0  0  0  0  0  0  0
    3.8409   -0.1599   -0.1193 C   0  0  0  0  0  0  0  0  0  0  0  0
    4.3942    1.4236   -0.8451 S   0  0  0  0  0  0  0  0  0  0  0  0
    6.1047    1.2270   -0.8423 C   0  0  0  0  0  0  0  0  0  0  0  0
    6.7621    0.0980   -0.7259 N   0  0  0  0  0  0  0  0  0  0  0  0
    8.1065    0.3900   -0.7936 N   0  0  0  0  0  0  0  0  0  0  0  0
    8.2365    1.6949   -0.9446 C   0  0  0  0  0  0  0  0  0  0  0  0
    9.3572    2.5654   -1.0626 C   0  0  0  0  0  0  0  0  0  0  0  0
   10.9424    1.8942   -1.0448 Cl  0  0  0  0  0  0  0  0  0  0  0  0
    9.1697    3.8954   -1.1832 C   0  0  0  0  0  0  0  0  0  0  0  0
    7.8330    4.4654   -1.2037 C   0  0  0  0  0  0  0  0  0  0  0  0
    7.6543    6.1664   -1.3444 Cl  0  0  0  0  0  0  0  0  0  0  0  0
    6.7682    3.6548   -1.1058 C   0  0  0  0  0  0  0  0  0  0  0  0
    6.9763    2.2812   -0.9779 N   0  0  0  0  0  0  0  0  0  0  0  0
    4.1893   -1.0023   -0.7241 H   0  0  0  0  0  0  0  0  0  0  0  0
    4.2244   -0.2568    0.9006 H   0  0  0  0  0  0  0  0  0  0  0  0
   10.0145    4.5720   -1.2712 H   0  0  0  0  0  0  0  0  0  0  0  0
    5.7482    4.0182   -1.1146 H   0  0  0  0  0  0  0  0  0  0  0  0
  1  2  3  0  0  0  0
  2  3  1  0  0  0  0
  3  4  1  0  0  0  0
  3 16  1  0  0  0  0
  3 17  1  0  0  0  0
  4  5  1  0  0  0  0
  5  6  2  0  0  0  0
  5 15  1  0  0  0  0
  6  7  1  0  0  0  0
  7  8  2  0  0  0  0
  8  9  1  0  0  0  0
  8 15  1  0  0  0  0
  9 10  1  0  0  0  0
  9 11  2  0  0  0  0
 11 12  1  0  0  0  0
 11 18  1  0  0  0  0
 12 13  1  0  0  0  0
 12 14  2  0  0  0  0
 14 15  1  0  0  0  0
 14 19  1  0  0  0  0
M  END
>  <Energy>
159.101

$$$$

 OpenBabel04232614443D

 35 38  0  0  0  0  0  0  0  0999 V2000
    1.1393    0.1553   -0.0060 C   0  0  0  0  0  0  0  0  0  0  0  0
    2.6318    0.0240    0.0254 C   0  0  0  0  0  0  0  0  0  0  0  0
    3.2383   -1.2206   -0.0591 C   0  0  0  0  0  0  0  0  0  0  0  0
    4.6217   -1.3189    0.0941 C   0  0  0  0  0  0  0  0  0  0  0  0
    5.2450   -2.5816    0.0412 C   0  0  0  0  0  0  0  0  0  0  0  0
    6.5988   -2.6571    0.2758 C   0  0  0  0  0  0  0  0  0  0  0  0
    7.3364   -1.5434    0.5758 C   0  0  0  0  0  0  0  0  0  0  0  0
    6.7679   -0.2906    0.6169 C   0  0  0  0  0  0  0  0  0  0  0  0
    5.3872   -0.1389    0.3258 C   0  0  0  0  0  0  0  0  0  0  0  0
    4.6952    1.0998    0.2632 C   0  0  0  0  0  0  0  0  0  0  0  0
    5.3598    2.4301    0.2637 C   0  0  0  0  0  0  0  0  0  0  0  0
    6.5533    2.6741   -0.4383 C   0  0  0  0  0  0  0  0  0  0  0  0
    7.1870    3.9221   -0.4066 C   0  0  0  0  0  0  0  0  0  0  0  0
    6.6434    4.9768    0.3208 C   0  0  0  0  0  0  0  0  0  0  0  0
    7.2146    6.2521    0.2470 N   0  0  0  0  0  0  0  0  0  0  0  0
    5.3954    4.7921    0.9168 C   0  0  0  0  0  0  0  0  0  0  0  0
    4.7748    3.5345    0.9086 C   0  0  0  0  0  0  0  0  0  0  0  0
    3.3393    1.1693    0.1502 N   0  0  0  0  0  0  0  0  0  0  0  0
    8.6434   -1.8302    0.8147 O   0  0  0  0  0  0  0  0  0  0  0  0
    8.6473   -3.2568    0.6059 C   0  0  0  0  0  0  0  0  0  0  0  0
    7.3489   -3.7903    0.2699 O   0  0  0  0  0  0  0  0  0  0  0  0
    0.6452   -0.8220   -0.0104 H   0  0  0  0  0  0  0  0  0  0  0  0
    0.8261    0.7063   -0.8975 H   0  0  0  0  0  0  0  0  0  0  0  0
    0.7992    0.6953    0.8845 H   0  0  0  0  0  0  0  0  0  0  0  0
    2.6316   -2.1098   -0.2012 H   0  0  0  0  0  0  0  0  0  0  0  0
    4.6837   -3.4858   -0.1708 H   0  0  0  0  0  0  0  0  0  0  0  0
    7.3917    0.5534    0.8936 H   0  0  0  0  0  0  0  0  0  0  0  0
    7.0072    1.8913   -1.0429 H   0  0  0  0  0  0  0  0  0  0  0  0
    8.1088    4.0593   -0.9657 H   0  0  0  0  0  0  0  0  0  0  0  0
    8.2196    6.2402    0.0976 H   0  0  0  0  0  0  0  0  0  0  0  0
    6.9477    6.8608    1.0144 H   0  0  0  0  0  0  0  0  0  0  0  0
    4.8873    5.6244    1.3947 H   0  0  0  0  0  0  0  0  0  0  0  0
    3.8078    3.4227    1.3972 H   0  0  0  0  0  0  0  0  0  0  0  0
    9.3451   -3.4873   -0.2078 H   0  0  0  0  0  0  0  0  0  0  0  0
    9.0003   -3.7448    1.5216 H   0  0  0  0  0  0  0  0  0  0  0  0
  1  2  1  0  0  0  0
  1 22  1  0  0  0  0
  1 23  1  0  0  0  0
  1 24  1  0  0  0  0
  2  3  1  0  0  0  0
  2 18  2  0  0  0  0
  3  4  2  0  0  0  0
  3 25  1  0  0  0  0
  4  5  1  0  0  0  0
  4  9  1  0  0  0  0
  5  6  2  0  0  0  0
  5 26  1  0  0  0  0
  6  7  1  0  0  0  0
  6 21  1  0  0  0  0
  7  8  2  0  0  0  0
  7 19  1  0  0  0  0
  8  9  1  0  0  0  0
  8 27  1  0  0  0  0
  9 10  2  0  0  0  0
 10 11  1  0  0  0  0
 10 18  1  0  0  0  0
 11 12  1  0  0  0  0
 11 17  2  0  0  0  0
 12 13  2  0  0  0  0
 12 28  1  0  0  0  0
 13 14  1  0  0  0  0
 13 29  1  0  0  0  0
 14 15  1  0  0  0  0
 14 16  2  0  0  0  0
 15 30  1  0  0  0  0
 15 31  1  0  0  0  0
 16 17  1  0  0  0  0
 16 32  1  0  0  0  0
 17 33  1  0  0  0  0
 19 20  1  0  0  0  0
 20 21  1  0  0  0  0
 20 34  1  0  0  0  0
 20 35  1  0  0  0  0
M  END
>  <Energy>
56.9115

$$$$

 OpenBabel04232614443D

 32 35  0  0  0  0  0  0  0  0999 V2000
    1.1501    0.0045   -0.0736 C   0  0  0  0  0  0  0  0  0  0  0  0
    2.6270    0.0349   -0.1116 C   0  0  0  0  0  0  0  0  0  0  0  0
    3.4416   -1.0048   -0.1292 N   0  0  0  0  0  0  0  0  0  0  0  0
    4.7317   -0.5290   -0.1558 N   0  0  0  0  0  0  0  0  0  0  0  0
    4.6707    0.7832   -0.1511 C   0  0  0  0  0  0  0  0  0  0  0  0
    5.7145    1.7771   -0.1174 C   0  0  0  0  0  0  0  0  0  0  0  0
    7.0695    1.4195   -0.1195 C   0  0  0  0  0  0  0  0  0  0  0  0
    8.0465    2.4096   -0.0213 C   0  0  0  0  0  0  0  0  0  0  0  0
    7.6713    3.7397    0.1298 C   0  0  0  0  0  0  0  0  0  0  0  0
    6.3179    4.0919    0.1577 C   0  0  0  0  0  0  0  0  0  0  0  0
    5.3247    3.1202   -0.0307 C   0  0  0  0  0  0  0  0  0  0  0  0
    3.8315    3.4162   -0.1095 C   0  0  0  0  0  0  0  0  0  0  0  0
    3.3516    4.8402   -0.1435 C   0  0  0  0  0  0  0  0  0  0  0  0
    4.0093    5.8338   -0.8791 C   0  0  0  0  0  0  0  0  0  0  0  0
    3.6374    7.1739   -0.7438 C   0  0  0  0  0  0  0  0  0  0  0  0
    2.5472    7.5159    0.0536 C   0  0  0  0  0  0  0  0  0  0  0  0
    1.8131    6.5193    0.6923 C   0  0  0  0  0  0  0  0  0  0  0  0
    2.2136    5.1826    0.5985 C   0  0  0  0  0  0  0  0  0  0  0  0
    2.9100    2.4860   -0.1316 N   0  0  0  0  0  0  0  0  0  0  0  0
    3.3622    1.1945   -0.1305 N   0  0  0  0  0  0  0  0  0  0  0  0
    0.7878   -1.0282   -0.0651 H   0  0  0  0  0  0  0  0  0  0  0  0
    0.7270    0.5026   -0.9531 H   0  0  0  0  0  0  0  0  0  0  0  0
    0.7743    0.5012    0.8265 H   0  0  0  0  0  0  0  0  0  0  0  0
    7.3601    0.3747   -0.1874 H   0  0  0  0  0  0  0  0  0  0  0  0
    9.0990    2.1357   -0.0388 H   0  0  0  0  0  0  0  0  0  0  0  0
    8.4324    4.5106    0.2324 H   0  0  0  0  0  0  0  0  0  0  0  0
    6.0815    5.1341    0.3375 H   0  0  0  0  0  0  0  0  0  0  0  0
    4.8353    5.5898   -1.5409 H   0  0  0  0  0  0  0  0  0  0  0  0
    4.2017    7.9493   -1.2556 H   0  0  0  0  0  0  0  0  0  0  0  0
    2.2633    8.5598    0.1668 H   0  0  0  0  0  0  0  0  0  0  0  0
    0.9369    6.7820    1.2805 H   0  0  0  0  0  0  0  0  0  0  0  0
    1.6430    4.4172    1.1176 H   0  0  0  0  0  0  0  0  0  0  0  0
  1  2  1  0  0  0  0
  1 21  1  0  0  0  0
  1 22  1  0  0  0  0
  1 23  1  0  0  0  0
  2  3  2  0  0  0  0
  2 20  1  0  0  0  0
  3  4  1  0  0  0  0
  4  5  2  0  0  0  0
  5  6  1  0  0  0  0
  5 20  1  0  0  0  0
  6  7  1  0  0  0  0
  6 11  2  0  0  0  0
  7  8  2  0  0  0  0
  7 24  1  0  0  0  0
  8  9  1  0  0  0  0
  8 25  1  0  0  0  0
  9 10  2  0  0  0  0
  9 26  1  0  0  0  0
 10 11  1  0  0  0  0
 10 27  1  0  0  0  0
 11 12  1  0  0  0  0
 12 13  1  0  0  0  0
 12 19  2  0  0  0  0
 13 14  1  0  0  0  0
 13 18  2  0  0  0  0
 14 15  2  0  0  0  0
 14 28  1  0  0  0  0
 15 16  1  0  0  0  0
 15 29  1  0  0  0  0
 16 17  2  0  0  0  0
 16 30  1  0  0  0  0
 17 18  1  0  0  0  0
 17 31  1  0  0  0  0
 18 32  1  0  0  0  0
 19 20  1  0  0  0  0
M  END
>  <Energy>
92.9548

$$$$

 OpenBabel04232614443D

 32 35  0  0  0  0  0  0  0  0999 V2000
    1.0485    0.0635    0.2243 N   0  0  0  0  0  0  0  0  0  0  0  0
    2.4190    0.0528    0.1960 C   0  0  0  0  0  0  0  0  0  0  0  0
    2.9963    1.2276    0.2224 N   0  0  0  0  0  0  0  0  0  0  0  0
    4.3555    1.2114    0.1699 N   0  0  0  0  0  0  0  0  0  0  0  0
    5.1613    2.3131    0.1849 C   0  0  0  0  0  0  0  0  0  0  0  0
    6.4495    1.8294    0.0990 C   0  0  0  0  0  0  0  0  0  0  0  0
    7.6538    2.6424    0.0704 C   0  0  0  0  0  0  0  0  0  0  0  0
    7.6970    3.9050    0.6799 C   0  0  0  0  0  0  0  0  0  0  0  0
    8.8571    4.6817    0.6270 C   0  0  0  0  0  0  0  0  0  0  0  0
    9.9854    4.2050   -0.0367 C   0  0  0  0  0  0  0  0  0  0  0  0
    9.9586    2.9478   -0.6382 C   0  0  0  0  0  0  0  0  0  0  0  0
    8.8003    2.1675   -0.5796 C   0  0  0  0  0  0  0  0  0  0  0  0
    6.4482    0.4524    0.0125 N   0  0  0  0  0  0  0  0  0  0  0  0
    5.1761    0.1090    0.0768 C   0  0  0  0  0  0  0  0  0  0  0  0
    4.5618   -1.2012    0.0655 C   0  0  0  0  0  0  0  0  0  0  0  0
    5.3056   -2.3816    0.0134 C   0  0  0  0  0  0  0  0  0  0  0  0
    4.6500   -3.6143    0.0266 C   0  0  0  0  0  0  0  0  0  0  0  0
    3.2559   -3.6679    0.0974 C   0  0  0  0  0  0  0  0  0  0  0  0
    2.5077   -2.4890    0.1538 C   0  0  0  0  0  0  0  0  0  0  0  0
    3.1618   -1.2529    0.1302 C   0  0  0  0  0  0  0  0  0  0  0  0
    0.6849    1.0031    0.0910 H   0  0  0  0  0  0  0  0  0  0  0  0
    0.5787   -0.6064   -0.3733 H   0  0  0  0  0  0  0  0  0  0  0  0
    4.7464    3.3069    0.2407 H   0  0  0  0  0  0  0  0  0  0  0  0
    6.8333    4.2934    1.2134 H   0  0  0  0  0  0  0  0  0  0  0  0
    8.8780    5.6572    1.1057 H   0  0  0  0  0  0  0  0  0  0  0  0
   10.8862    4.8113   -0.0817 H   0  0  0  0  0  0  0  0  0  0  0  0
   10.8382    2.5728   -1.1544 H   0  0  0  0  0  0  0  0  0  0  0  0
    8.7908    1.1877   -1.0529 H   0  0  0  0  0  0  0  0  0  0  0  0
    6.3922   -2.3418   -0.0287 H   0  0  0  0  0  0  0  0  0  0  0  0
    5.2283   -4.5352   -0.0080 H   0  0  0  0  0  0  0  0  0  0  0  0
    2.7530   -4.6318    0.1181 H   0  0  0  0  0  0  0  0  0  0  0  0
    1.4277   -2.5565    0.2332 H   0  0  0  0  0  0  0  0  0  0  0  0
  1  2  1  0  0  0  0
  1 21  1  0  0  0  0
  1 22  1  0  0  0  0
  2  3  2  0  0  0  0
  2 20  1  0  0  0  0
  3  4  1  0  0  0  0
  4  5  1  0  0  0  0
  4 14  1  0  0  0  0
  5  6  2  0  0  0  0
  5 23  1  0  0  0  0
  6  7  1  0  0  0  0
  6 13  1  0  0  0  0
  7  8  1  0  0  0  0
  7 12  2  0  0  0  0
  8  9  2  0  0  0  0
  8 24  1  0  0  0  0
  9 10  1  0  0  0  0
  9 25  1  0  0  0  0
 10 11  2  0  0  0  0
 10 26  1  0  0  0  0
 11 12  1  0  0  0  0
 11 27  1  0  0  0  0
 12 28  1  0  0  0  0
 13 14  2  0  0  0  0
 14 15  1  0  0  0  0
 15 16  1  0  0  0  0
 15 20  2  0  0  0  0
 16 17  2  0  0  0  0
 16 29  1  0  0  0  0
 17 18  1  0  0  0  0
 17 30  1  0  0  0  0
 18 19  2  0  0  0  0
 18 31  1  0  0  0  0
 19 20  1  0  0  0  0
 19 32  1  0  0  0  0
M  END
>  <Energy>
28.3956

$$$$

 OpenBabel04232614443D

 32 34  0  0  1  0  0  0  0  0999 V2000
    1.1278    0.2208    0.4646 C   0  0  0  0  0  0  0  0  0  0  0  0
    2.4192    0.0585   -0.1842 N   0  0  0  0  0  0  0  0  0  0  0  0
    3.0924    1.1947   -0.6031 C   0  0  0  0  0  0  0  0  0  0  0  0
    2.7035    2.3417   -0.3930 O   0  0  0  0  0  0  0  0  0  0  0  0
    4.3280    0.9730   -1.3846 C   0  0  0  0  0  0  0  0  0  0  0  0
    5.1159    2.0780   -1.7441 C   0  0  0  0  0  0  0  0  0  0  0  0
    6.2281    1.9018   -2.5583 C   0  0  0  0  0  0  0  0  0  0  0  0
    6.5420    0.6272   -3.0144 C   0  0  0  0  0  0  0  0  0  0  0  0
    5.7554   -0.4735   -2.6450 C   0  0  0  0  0  0  0  0  0  0  0  0
    4.6353   -0.3352   -1.8065 C   0  0  0  0  0  0  0  0  0  0  0  0
    3.8013   -1.4142   -1.4278 N   0  0  0  0  0  0  0  0  0  0  0  0
    4.2825   -2.7651   -1.7111 C   0  0  0  0  0  0  0  0  0  0  0  0
    3.1720   -1.1912   -0.1054 C   0  0  3  0  0  0  0  0  0  0  0  0
    2.3276   -2.3384    0.4310 C   0  0  0  0  0  0  0  0  0  0  0  0
    1.2410   -2.9755   -0.1451 C   0  0  0  0  0  0  0  0  0  0  0  0
    0.7286   -4.0308    0.6639 C   0  0  0  0  0  0  0  0  0  0  0  0
    1.4430   -4.1781    1.8308 C   0  0  0  0  0  0  0  0  0  0  0  0
    2.7205   -3.0485    1.9477 S   0  0  0  0  0  0  0  0  0  0  0  0
    0.7956    1.2618    0.4509 H   0  0  0  0  0  0  0  0  0  0  0  0
    1.1844   -0.1049    1.5068 H   0  0  0  0  0  0  0  0  0  0  0  0
    0.3824   -0.3613   -0.0836 H   0  0  0  0  0  0  0  0  0  0  0  0
    4.8461    3.0757   -1.4042 H   0  0  0  0  0  0  0  0  0  0  0  0
    6.8320    2.7561   -2.8511 H   0  0  0  0  0  0  0  0  0  0  0  0
    7.3963    0.4832   -3.6719 H   0  0  0  0  0  0  0  0  0  0  0  0
    6.0541   -1.4378   -3.0429 H   0  0  0  0  0  0  0  0  0  0  0  0
    4.5639   -2.8840   -2.7628 H   0  0  0  0  0  0  0  0  0  0  0  0
    3.4992   -3.5126   -1.5601 H   0  0  0  0  0  0  0  0  0  0  0  0
    5.1328   -3.0271   -1.0720 H   0  0  0  0  0  0  0  0  0  0  0  0
    3.9812   -1.0111    0.6216 H   0  0  0  0  0  0  0  0  0  0  0  0
    0.8382   -2.6902   -1.1107 H   0  0  0  0  0  0  0  0  0  0  0  0
   -0.1212   -4.6529    0.4029 H   0  0  0  0  0  0  0  0  0  0  0  0
    1.2791   -4.8982    2.6207 H   0  0  0  0  0  0  0  0  0  0  0  0
  1  2  1  0  0  0  0
  1 19  1  0  0  0  0
  1 20  1  0  0  0  0
  1 21  1  0  0  0  0
  2  3  1  0  0  0  0
  2 13  1  0  0  0  0
  3  4  2  0  0  0  0
  3  5  1  0  0  0  0
  5  6  1  0  0  0  0
  5 10  2  0  0  0  0
  6  7  2  0  0  0  0
  6 22  1  0  0  0  0
  7  8  1  0  0  0  0
  7 23  1  0  0  0  0
  8  9  2  0  0  0  0
  8 24  1  0  0  0  0
  9 10  1  0  0  0  0
  9 25  1  0  0  0  0
 10 11  1  0  0  0  0
 11 12  1  0  0  0  0
 11 13  1  0  0  0  0
 12 26  1  0  0  0  0
 12 27  1  0  0  0  0
 12 28  1  0  0  0  0
 13 14  1  0  0  0  0
 13 29  1  0  0  0  0
 14 15  2  0  0  0  0
 14 18  1  0  0  0  0
 15 16  1  0  0  0  0
 15 30  1  0  0  0  0
 16 17  2  0  0  0  0
 16 31  1  0  0  0  0
 17 18  1  0  0  0  0
 17 32  1  0  0  0  0
M  END
>  <Energy>
-7.8341

$$$$

 OpenBabel04232614443D

 15 15  0  0  0  0  0  0  0  0999 V2000
   -2.7105    0.8258   -0.0134 Cl  0  0  0  0  0  0  0  0  0  0  0  0
   -1.2228   -0.0337   -0.0036 C   0  0  0  0  0  0  0  0  0  0  0  0
   -1.2233   -1.4199   -0.0039 C   0  0  0  0  0  0  0  0  0  0  0  0
   -0.0099   -2.1193    0.0038 C   0  0  0  0  0  0  0  0  0  0  0  0
    1.2430   -1.4578    0.0111 C   0  0  0  0  0  0  0  0  0  0  0  0
    2.5618   -2.2395    0.0193 C   0  0  0  0  0  0  0  0  0  0  0  0
    2.3473   -4.0410   -0.0198 Cl  0  0  0  0  0  0  0  0  0  0  0  0
    3.5496   -1.8638   -1.4326 Cl  0  0  0  0  0  0  0  0  0  0  0  0
    3.4923   -1.9131    1.5199 Cl  0  0  0  0  0  0  0  0  0  0  0  0
    1.1981   -0.0413    0.0155 C   0  0  0  0  0  0  0  0  0  0  0  0
    2.6124    0.9599    0.0361 Cl  0  0  0  0  0  0  0  0  0  0  0  0
   -0.0195    0.6571    0.0062 C   0  0  0  0  0  0  0  0  0  0  0  0
   -2.1622   -1.9700   -0.0110 H   0  0  0  0  0  0  0  0  0  0  0  0
   -0.0868   -3.2053    0.0039 H   0  0  0  0  0  0  0  0  0  0  0  0
   -0.0260    1.7453    0.0065 H   0  0  0  0  0  0  0  0  0  0  0  0
  1  2  1  0  0  0  0
  2  3  1  0  0  0  0
  2 12  2  0  0  0  0
  3  4  2  0  0  0  0
  3 13  1  0  0  0  0
  4  5  1  0  0  0  0
  4 14  1  0  0  0  0
  5  6  1  0  0  0  0
  5 10  2  0  0  0  0
  6  7  1  0  0  0  0
  6  8  1  0  0  0  0
  6  9  1  0  0  0  0
 10 11  1  0  0  0  0
 10 12  1  0  0  0  0
 12 15  1  0  0  0  0
M  END
>  <Energy>
25.9151

$$$$

 OpenBabel04232614443D

 31 33  0  0  0  0  0  0  0  0999 V2000
    1.3717    0.7803   -0.3553 C   0  0  0  0  0  0  0  0  0  0  0  0
    2.5021   -0.0985   -0.0833 N   0  0  0  0  0  0  0  0  0  0  0  0
    2.9632   -0.1965    1.2965 C   0  0  0  0  0  0  0  0  0  0  0  0
    3.2278   -0.6758   -1.1195 C   0  0  0  0  0  0  0  0  0  0  0  0
    2.8980   -0.4719   -2.4695 C   0  0  0  0  0  0  0  0  0  0  0  0
    3.6328   -1.0503   -3.5170 C   0  0  0  0  0  0  0  0  0  0  0  0
    4.7335   -1.8687   -3.2553 C   0  0  0  0  0  0  0  0  0  0  0  0
    5.4971   -2.4425   -4.3605 C   0  0  0  0  0  0  0  0  0  0  0  0
    5.3416   -2.2546   -5.6609 N   0  0  0  0  0  0  0  0  0  0  0  0
    6.3445   -3.0053   -6.2123 C   0  0  0  0  0  0  0  0  0  0  0  0
    6.7269   -3.2151   -7.5403 C   0  0  0  0  0  0  0  0  0  0  0  0
    7.8248   -4.0538   -7.7480 C   0  0  0  0  0  0  0  0  0  0  0  0
    8.4668   -4.6295   -6.6540 C   0  0  0  0  0  0  0  0  0  0  0  0
    9.5159   -5.4274   -6.9055 F   0  0  0  0  0  0  0  0  0  0  0  0
    8.1327   -4.4569   -5.3560 N   0  0  0  0  0  0  0  0  0  0  0  0
    7.0754   -3.6401   -5.2145 C   0  0  0  0  0  0  0  0  0  0  0  0
    6.5291   -3.2797   -4.0201 O   0  0  0  0  0  0  0  0  0  0  0  0
    5.0713   -2.0973   -1.9203 C   0  0  0  0  0  0  0  0  0  0  0  0
    4.3321   -1.5110   -0.8805 C   0  0  0  0  0  0  0  0  0  0  0  0
    0.9043    1.1419    0.5672 H   0  0  0  0  0  0  0  0  0  0  0  0
    0.5918    0.2481   -0.9114 H   0  0  0  0  0  0  0  0  0  0  0  0
    1.6867    1.6624   -0.9234 H   0  0  0  0  0  0  0  0  0  0  0  0
    2.3200    0.3621    1.9843 H   0  0  0  0  0  0  0  0  0  0  0  0
    3.9748    0.2121    1.4029 H   0  0  0  0  0  0  0  0  0  0  0  0
    2.9544   -1.2386    1.6342 H   0  0  0  0  0  0  0  0  0  0  0  0
    2.0559    0.1547   -2.7489 H   0  0  0  0  0  0  0  0  0  0  0  0
    3.3335   -0.8486   -4.5441 H   0  0  0  0  0  0  0  0  0  0  0  0
    6.1979   -2.7433   -8.3597 H   0  0  0  0  0  0  0  0  0  0  0  0
    8.1852   -4.2621   -8.7500 H   0  0  0  0  0  0  0  0  0  0  0  0
    5.9176   -2.7307   -1.6615 H   0  0  0  0  0  0  0  0  0  0  0  0
    4.6522   -1.7335    0.1333 H   0  0  0  0  0  0  0  0  0  0  0  0
  1  2  1  0  0  0  0
  1 20  1  0  0  0  0
  1 21  1  0  0  0  0
  1 22  1  0  0  0  0
  2  3  1  0  0  0  0
  2  4  1  0  0  0  0
  3 23  1  0  0  0  0
  3 24  1  0  0  0  0
  3 25  1  0  0  0  0
  4  5  1  0  0  0  0
  4 19  2  0  0  0  0
  5  6  2  0  0  0  0
  5 26  1  0  0  0  0
  6  7  1  0  0  0  0
  6 27  1  0  0  0  0
  7  8  1  0  0  0  0
  7 18  2  0  0  0  0
  8  9  2  0  0  0  0
  8 17  1  0  0  0  0
  9 10  1  0  0  0  0
 10 11  1  0  0  0  0
 10 16  2  0  0  0  0
 11 12  2  0  0  0  0
 11 28  1  0  0  0  0
 12 13  1  0  0  0  0
 12 29  1  0  0  0  0
 13 14  1  0  0  0  0
 13 15  2  0  0  0  0
 15 16  1  0  0  0  0
 16 17  1  0  0  0  0
 18 19  1  0  0  0  0
 18 30  1  0  0  0  0
 19 31  1  0  0  0  0
M  END
>  <Energy>
38.427

$$$$

 OpenBabel04232614443D

 22 23  0  0  0  0  0  0  0  0999 V2000
    1.0152    0.1998    0.0528 C   0  0  0  0  0  0  0  0  0  0  0  0
    2.4504    0.0119    0.0198 N   0  0  0  0  0  0  0  0  0  0  0  0
    3.2997    1.0700    0.2174 N   0  0  0  0  0  0  0  0  0  0  0  0
    4.4760    0.5333    0.2156 C   0  0  0  0  0  0  0  0  0  0  0  0
    4.5162   -0.8106    0.0406 N   0  0  0  0  0  0  0  0  0  0  0  0
    5.7034   -1.5822   -0.0171 C   0  0  0  0  0  0  0  0  0  0  0  0
    5.7948   -2.7452   -0.7923 C   0  0  0  0  0  0  0  0  0  0  0  0
    6.9839   -3.4827   -0.8576 C   0  0  0  0  0  0  0  0  0  0  0  0
    8.1076   -3.0716   -0.1445 C   0  0  0  0  0  0  0  0  0  0  0  0
    9.5410   -4.0245   -0.2737 Cl  0  0  0  0  0  0  0  0  0  0  0  0
    8.0393   -1.9131    0.6310 C   0  0  0  0  0  0  0  0  0  0  0  0
    9.3820   -1.3395    1.5563 Cl  0  0  0  0  0  0  0  0  0  0  0  0
    6.8496   -1.1711    0.6837 C   0  0  0  0  0  0  0  0  0  0  0  0
    3.1795   -1.1930   -0.0545 C   0  0  0  0  0  0  0  0  0  0  0  0
    2.4941   -2.7141   -0.1251 S   0  0  0  0  0  0  0  0  0  0  0  0
    0.7770    1.2663    0.0162 H   0  0  0  0  0  0  0  0  0  0  0  0
    0.6215   -0.2381    0.9742 H   0  0  0  0  0  0  0  0  0  0  0  0
    0.5650   -0.3056   -0.8059 H   0  0  0  0  0  0  0  0  0  0  0  0
    5.4099    1.1002    0.3190 H   0  0  0  0  0  0  0  0  0  0  0  0
    4.9664   -3.0843   -1.4084 H   0  0  0  0  0  0  0  0  0  0  0  0
    7.0215   -4.3750   -1.4797 H   0  0  0  0  0  0  0  0  0  0  0  0
    6.8248   -0.2908    1.3220 H   0  0  0  0  0  0  0  0  0  0  0  0
  1  2  1  0  0  0  0
  1 16  1  0  0  0  0
  1 17  1  0  0  0  0
  1 18  1  0  0  0  0
  2  3  1  0  0  0  0
  2 14  1  0  0  0  0
  3  4  2  0  0  0  0
  4  5  1  0  0  0  0
  4 19  1  0  0  0  0
  5  6  1  0  0  0  0
  5 14  1  0  0  0  0
  6  7  1  0  0  0  0
  6 13  2  0  0  0  0
  7  8  2  0  0  0  0
  7 20  1  0  0  0  0
  8  9  1  0  0  0  0
  8 21  1  0  0  0  0
  9 10  1  0  0  0  0
  9 11  2  0  0  0  0
 11 12  1  0  0  0  0
 11 13  1  0  0  0  0
 13 22  1  0  0  0  0
 14 15  2  0  0  0  0
M  END
>  <Energy>
51.2093

$$$$

 OpenBabel04232614443D

 30 33  0  0  0  0  0  0  0  0999 V2000
    0.9414    0.3938   -0.1157 N   0  0  0  0  0  0  0  0  0  0  0  0
    2.3098    0.1996   -0.0291 C   0  0  0  0  0  0  0  0  0  0  0  0
    3.1038    1.2809   -0.0007 N   0  0  0  0  0  0  0  0  0  0  0  0
    4.4316    1.0907    0.0449 C   0  0  0  0  0  0  0  0  0  0  0  0
    5.0919   -0.0724    0.0741 N   0  0  0  0  0  0  0  0  0  0  0  0
    4.2854   -1.1670    0.0642 C   0  0  0  0  0  0  0  0  0  0  0  0
    2.9000   -1.0627    0.0259 C   0  0  0  0  0  0  0  0  0  0  0  0
    2.1550   -2.6018    0.0545 S   0  0  0  0  0  0  0  0  0  0  0  0
    3.6603   -3.4227    0.0723 C   0  0  0  0  0  0  0  0  0  0  0  0
    3.8446   -4.8200    0.0791 C   0  0  0  0  0  0  0  0  0  0  0  0
    5.1373   -5.3703    0.0412 C   0  0  0  0  0  0  0  0  0  0  0  0
    5.3272   -6.8353   -0.0209 C   0  0  0  0  0  0  0  0  0  0  0  0
    6.4058   -7.4848    0.5949 C   0  0  0  0  0  0  0  0  0  0  0  0
    6.5546   -8.8689    0.4943 C   0  0  0  0  0  0  0  0  0  0  0  0
    5.6081   -9.5830   -0.2185 C   0  0  0  0  0  0  0  0  0  0  0  0
    4.5474   -9.0159   -0.8210 N   0  0  0  0  0  0  0  0  0  0  0  0
    4.4384   -7.6683   -0.7111 C   0  0  0  0  0  0  0  0  0  0  0  0
    6.2215   -4.4843    0.0424 C   0  0  0  0  0  0  0  0  0  0  0  0
    6.0378   -3.0912    0.0660 C   0  0  0  0  0  0  0  0  0  0  0  0
    4.7371   -2.5378    0.0699 C   0  0  0  0  0  0  0  0  0  0  0  0
    0.6532    1.3283    0.1458 H   0  0  0  0  0  0  0  0  0  0  0  0
    0.3581   -0.3805    0.1713 H   0  0  0  0  0  0  0  0  0  0  0  0
    5.0407    1.9894    0.0564 H   0  0  0  0  0  0  0  0  0  0  0  0
    2.9668   -5.4606    0.1052 H   0  0  0  0  0  0  0  0  0  0  0  0
    7.1387   -6.9243    1.1698 H   0  0  0  0  0  0  0  0  0  0  0  0
    7.3917   -9.3751    0.9604 H   0  0  0  0  0  0  0  0  0  0  0  0
    5.6811  -10.6613   -0.3265 H   0  0  0  0  0  0  0  0  0  0  0  0
    3.5750   -7.2635   -1.2335 H   0  0  0  0  0  0  0  0  0  0  0  0
    7.2433   -4.8575    0.0007 H   0  0  0  0  0  0  0  0  0  0  0  0
    6.9020   -2.4303    0.0587 H   0  0  0  0  0  0  0  0  0  0  0  0
  1  2  1  0  0  0  0
  1 21  1  0  0  0  0
  1 22  1  0  0  0  0
  2  3  1  0  0  0  0
  2  7  2  0  0  0  0
  3  4  2  0  0  0  0
  4  5  1  0  0  0  0
  4 23  1  0  0  0  0
  5  6  2  0  0  0  0
  6  7  1  0  0  0  0
  6 20  1  0  0  0  0
  7  8  1  0  0  0  0
  8  9  1  0  0  0  0
  9 10  1  0  0  0  0
  9 20  2  0  0  0  0
 10 11  2  0  0  0  0
 10 24  1  0  0  0  0
 11 12  1  0  0  0  0
 11 18  1  0  0  0  0
 12 13  1  0  0  0  0
 12 17  2  0  0  0  0
 13 14  2  0  0  0  0
 13 25  1  0  0  0  0
 14 15  1  0  0  0  0
 14 26  1  0  0  0  0
 15 16  2  0  0  0  0
 15 27  1  0  0  0  0
 16 17  1  0  0  0  0
 17 28  1  0  0  0  0
 18 19  2  0  0  0  0
 18 29  1  0  0  0  0
 19 20  1  0  0  0  0
 19 30  1  0  0  0  0
M  END
>  <Energy>
13.1761

$$$$

 OpenBabel04232614443D

 26 28  0  0  0  0  0  0  0  0999 V2000
    1.0792    0.0449   -0.1493 N   0  0  0  0  0  0  0  0  0  0  0  0
    2.4052   -0.0093   -0.0855 C   0  0  0  0  0  0  0  0  0  0  0  0
    3.0934    1.1601   -0.0822 N   0  0  0  0  0  0  0  0  0  0  0  0
    4.3440    0.7614   -0.0466 C   0  0  0  0  0  0  0  0  0  0  0  0
    5.5684    1.4830   -0.0597 C   0  0  0  0  0  0  0  0  0  0  0  0
    6.7356    0.8139   -0.0667 C   0  0  0  0  0  0  0  0  0  0  0  0
    6.7773   -0.6399   -0.0441 C   0  0  0  0  0  0  0  0  0  0  0  0
    5.6228   -1.3396   -0.0055 C   0  0  0  0  0  0  0  0  0  0  0  0
    5.6636   -2.8130    0.0404 C   0  0  0  0  0  0  0  0  0  0  0  0
    5.6414   -3.5112   -1.1788 C   0  0  0  0  0  0  0  0  0  0  0  0
    5.7011   -4.9045   -1.2013 C   0  0  0  0  0  0  0  0  0  0  0  0
    5.7826   -5.6154   -0.0060 C   0  0  0  0  0  0  0  0  0  0  0  0
    5.8000   -4.9370    1.2165 C   0  0  0  0  0  0  0  0  0  0  0  0
    5.9047   -5.8984    2.6513 Cl  0  0  0  0  0  0  0  0  0  0  0  0
    5.7426   -3.5335    1.2494 C   0  0  0  0  0  0  0  0  0  0  0  0
    5.7847   -2.6834    2.7640 Cl  0  0  0  0  0  0  0  0  0  0  0  0
    4.4023   -0.6363   -0.0122 N   0  0  0  0  0  0  0  0  0  0  0  0
    3.1309   -1.1163   -0.0156 N   0  0  0  0  0  0  0  0  0  0  0  0
    0.6425    0.9273    0.0802 H   0  0  0  0  0  0  0  0  0  0  0  0
    0.5657   -0.7777    0.1368 H   0  0  0  0  0  0  0  0  0  0  0  0
    5.5326    2.5667   -0.0701 H   0  0  0  0  0  0  0  0  0  0  0  0
    7.6813    1.3491   -0.0817 H   0  0  0  0  0  0  0  0  0  0  0  0
    7.7512   -1.1208   -0.0458 H   0  0  0  0  0  0  0  0  0  0  0  0
    5.5709   -2.9705   -2.1217 H   0  0  0  0  0  0  0  0  0  0  0  0
    5.6814   -5.4347   -2.1506 H   0  0  0  0  0  0  0  0  0  0  0  0
    5.8286   -6.7020   -0.0323 H   0  0  0  0  0  0  0  0  0  0  0  0
  1  2  1  0  0  0  0
  1 19  1  0  0  0  0
  1 20  1  0  0  0  0
  2  3  1  0  0  0  0
  2 18  2  0  0  0  0
  3  4  2  0  0  0  0
  4  5  1  0  0  0  0
  4 17  1  0  0  0  0
  5  6  2  0  0  0  0
  5 21  1  0  0  0  0
  6  7  1  0  0  0  0
  6 22  1  0  0  0  0
  7  8  2  0  0  0  0
  7 23  1  0  0  0  0
  8  9  1  0  0  0  0
  8 17  1  0  0  0  0
  9 10  1  0  0  0  0
  9 15  2  0  0  0  0
 10 11  2  0  0  0  0
 10 24  1  0  0  0  0
 11 12  1  0  0  0  0
 11 25  1  0  0  0  0
 12 13  2  0  0  0  0
 12 26  1  0  0  0  0
 13 14  1  0  0  0  0
 13 15  1  0  0  0  0
 15 16  1  0  0  0  0
 17 18  1  0  0  0  0
M  END
>  <Energy>
-22.0293

$$$$

 OpenBabel04232614443D

 35 38  0  0  0  0  0  0  0  0999 V2000
    0.6399    0.1224    0.0139 C   0  0  0  0  0  0  0  0  0  0  0  0
    2.1409    0.1139   -0.0181 C   0  0  0  0  0  0  0  0  0  0  0  0
    2.8712    1.3033   -0.0649 C   0  0  0  0  0  0  0  0  0  0  0  0
    4.2685    1.2769   -0.0647 C   0  0  0  0  0  0  0  0  0  0  0  0
    4.9656    0.0584   -0.0081 C   0  0  0  0  0  0  0  0  0  0  0  0
    6.3683    0.0210    0.0374 C   0  0  0  0  0  0  0  0  0  0  0  0
    7.0069   -1.2086    0.1355 C   0  0  0  0  0  0  0  0  0  0  0  0
    8.4544   -1.3695    0.3611 C   0  0  0  0  0  0  0  0  0  0  0  0
    9.1636   -0.5188    1.2491 C   0  0  0  0  0  0  0  0  0  0  0  0
   10.4772   -0.8037    1.6443 C   0  0  0  0  0  0  0  0  0  0  0  0
   11.0563   -1.9498    1.1505 C   0  0  0  0  0  0  0  0  0  0  0  0
   10.4073   -2.7564    0.2478 C   0  0  0  0  0  0  0  0  0  0  0  0
    9.1293   -2.4809   -0.1840 C   0  0  0  0  0  0  0  0  0  0  0  0
   11.1376   -3.8558   -0.0828 O   0  0  0  0  0  0  0  0  0  0  0  0
   12.2052   -3.7501    0.8802 C   0  0  0  0  0  0  0  0  0  0  0  0
   12.2681   -2.4534    1.5112 O   0  0  0  0  0  0  0  0  0  0  0  0
    6.3214   -2.3778    0.1406 N   0  0  0  0  0  0  0  0  0  0  0  0
    4.9811   -2.3420    0.0929 C   0  0  0  0  0  0  0  0  0  0  0  0
    4.3743   -3.6039    0.1428 N   0  0  0  0  0  0  0  0  0  0  0  0
    4.2413   -1.1504    0.0359 C   0  0  0  0  0  0  0  0  0  0  0  0
    2.8286   -1.1028    0.0370 C   0  0  0  0  0  0  0  0  0  0  0  0
    0.2395    1.1276   -0.1559 H   0  0  0  0  0  0  0  0  0  0  0  0
    0.2823   -0.2280    0.9872 H   0  0  0  0  0  0  0  0  0  0  0  0
    0.2430   -0.5300   -0.7708 H   0  0  0  0  0  0  0  0  0  0  0  0
    2.3584    2.2632   -0.0924 H   0  0  0  0  0  0  0  0  0  0  0  0
    4.8088    2.2207   -0.0934 H   0  0  0  0  0  0  0  0  0  0  0  0
    6.9419    0.9399    0.0230 H   0  0  0  0  0  0  0  0  0  0  0  0
    8.6652    0.3355    1.7033 H   0  0  0  0  0  0  0  0  0  0  0  0
   10.9948   -0.1810    2.3646 H   0  0  0  0  0  0  0  0  0  0  0  0
    8.6270   -3.1603   -0.8660 H   0  0  0  0  0  0  0  0  0  0  0  0
   13.1590   -3.9534    0.3834 H   0  0  0  0  0  0  0  0  0  0  0  0
   12.0451   -4.5102    1.6570 H   0  0  0  0  0  0  0  0  0  0  0  0
    5.1328   -4.2775    0.1507 H   0  0  0  0  0  0  0  0  0  0  0  0
    3.7616   -3.7351   -0.6528 H   0  0  0  0  0  0  0  0  0  0  0  0
    2.2609   -2.0280    0.1038 H   0  0  0  0  0  0  0  0  0  0  0  0
  1  2  1  0  0  0  0
  1 22  1  0  0  0  0
  1 23  1  0  0  0  0
  1 24  1  0  0  0  0
  2  3  1  0  0  0  0
  2 21  2  0  0  0  0
  3  4  2  0  0  0  0
  3 25  1  0  0  0  0
  4  5  1  0  0  0  0
  4 26  1  0  0  0  0
  5  6  1  0  0  0  0
  5 20  2  0  0  0  0
  6  7  2  0  0  0  0
  6 27  1  0  0  0  0
  7  8  1  0  0  0  0
  7 17  1  0  0  0  0
  8  9  1  0  0  0  0
  8 13  2  0  0  0  0
  9 10  2  0  0  0  0
  9 28  1  0  0  0  0
 10 11  1  0  0  0  0
 10 29  1  0  0  0  0
 11 12  2  0  0  0  0
 11 16  1  0  0  0  0
 12 13  1  0  0  0  0
 12 14  1  0  0  0  0
 13 30  1  0  0  0  0
 14 15  1  0  0  0  0
 15 16  1  0  0  0  0
 15 31  1  0  0  0  0
 15 32  1  0  0  0  0
 17 18  2  0  0  0  0
 18 19  1  0  0  0  0
 18 20  1  0  0  0  0
 19 33  1  0  0  0  0
 19 34  1  0  0  0  0
 20 21  1  0  0  0  0
 21 35  1  0  0  0  0
M  END
>  <Energy>
24.0552

$$$$

 OpenBabel04232614443D

 27 29  0  0  0  0  0  0  0  0999 V2000
   -2.0270   -0.5028   -0.5662 Cl  0  0  0  0  0  0  0  0  0  0  0  0
   -0.3282   -0.3171   -0.3720 C   0  0  0  0  0  0  0  0  0  0  0  0
    0.2079   -0.1523    0.9032 C   0  0  0  0  0  0  0  0  0  0  0  0
    1.5904   -0.0106    1.0674 C   0  0  0  0  0  0  0  0  0  0  0  0
    2.4417   -0.0311   -0.0473 C   0  0  0  0  0  0  0  0  0  0  0  0
    3.9377    0.0698    0.0946 C   0  0  0  0  0  0  0  0  0  0  0  0
    4.6554   -0.4010   -0.8790 N   0  0  0  0  0  0  0  0  0  0  0  0
    6.0559   -0.4422   -0.8381 C   0  0  0  0  0  0  0  0  0  0  0  0
    6.6852   -1.1637   -1.8617 C   0  0  0  0  0  0  0  0  0  0  0  0
    8.0765   -1.2706   -1.9283 C   0  0  0  0  0  0  0  0  0  0  0  0
    8.8595   -0.6567   -0.9550 C   0  0  0  0  0  0  0  0  0  0  0  0
    8.2497    0.0721    0.0623 C   0  0  0  0  0  0  0  0  0  0  0  0
    6.8511    0.1937    0.1202 C   0  0  0  0  0  0  0  0  0  0  0  0
    6.1588    1.2326    1.3799 S   0  0  0  0  0  0  0  0  0  0  0  0
    4.4604    0.6403    1.3963 C   0  0  0  0  0  0  0  0  0  0  0  0
    1.8870   -0.2018   -1.3249 C   0  0  0  0  0  0  0  0  0  0  0  0
    0.5050   -0.3418   -1.4867 C   0  0  0  0  0  0  0  0  0  0  0  0
   -0.4418   -0.1445    1.7744 H   0  0  0  0  0  0  0  0  0  0  0  0
    1.9731    0.0890    2.0789 H   0  0  0  0  0  0  0  0  0  0  0  0
    6.0754   -1.6437   -2.6235 H   0  0  0  0  0  0  0  0  0  0  0  0
    8.5402   -1.8267   -2.7371 H   0  0  0  0  0  0  0  0  0  0  0  0
    9.9433   -0.7365   -0.9982 H   0  0  0  0  0  0  0  0  0  0  0  0
    8.8738    0.5591    0.8087 H   0  0  0  0  0  0  0  0  0  0  0  0
    3.8438    1.5009    1.6774 H   0  0  0  0  0  0  0  0  0  0  0  0
    4.3630   -0.1219    2.1761 H   0  0  0  0  0  0  0  0  0  0  0  0
    2.5286   -0.2336   -2.2038 H   0  0  0  0  0  0  0  0  0  0  0  0
    0.0912   -0.4781   -2.4831 H   0  0  0  0  0  0  0  0  0  0  0  0
  1  2  1  0  0  0  0
  2  3  1  0  0  0  0
  2 17  2  0  0  0  0
  3  4  2  0  0  0  0
  3 18  1  0  0  0  0
  4  5  1  0  0  0  0
  4 19  1  0  0  0  0
  5  6  1  0  0  0  0
  5 16  2  0  0  0  0
  6  7  2  0  0  0  0
  6 15  1  0  0  0  0
  7  8  1  0  0  0  0
  8  9  1  0  0  0  0
  8 13  2  0  0  0  0
  9 10  2  0  0  0  0
  9 20  1  0  0  0  0
 10 11  1  0  0  0  0
 10 21  1  0  0  0  0
 11 12  2  0  0  0  0
 11 22  1  0  0  0  0
 12 13  1  0  0  0  0
 12 23  1  0  0  0  0
 13 14  1  0  0  0  0
 14 15  1  0  0  0  0
 15 24  1  0  0  0  0
 15 25  1  0  0  0  0
 16 17  1  0  0  0  0
 16 26  1  0  0  0  0
 17 27  1  0  0  0  0
M  END
>  <Energy>
80.5663

$$$$

 OpenBabel04232614443D

 29 31  0  0  0  0  0  0  0  0999 V2000
    0.8742    0.0807    0.2779 O   0  0  0  0  0  0  0  0  0  0  0  0
    2.0886    0.0438    0.1018 C   0  0  0  0  0  0  0  0  0  0  0  0
    2.7516    0.3359   -1.0769 N   0  0  0  0  0  0  0  0  0  0  0  0
    2.1328    0.7999   -2.2623 C   0  0  0  0  0  0  0  0  0  0  0  0
    0.8335    1.3286   -2.2896 C   0  0  0  0  0  0  0  0  0  0  0  0
    0.2433    1.7294   -3.4917 C   0  0  0  0  0  0  0  0  0  0  0  0
    0.9561    1.6104   -4.6743 C   0  0  0  0  0  0  0  0  0  0  0  0
    0.3834    1.9751   -5.8288 F   0  0  0  0  0  0  0  0  0  0  0  0
    2.2546    1.1172   -4.6566 C   0  0  0  0  0  0  0  0  0  0  0  0
    2.9445    1.0049   -5.8004 F   0  0  0  0  0  0  0  0  0  0  0  0
    2.8536    0.7223   -3.4595 C   0  0  0  0  0  0  0  0  0  0  0  0
    2.9235   -0.4178    1.2420 C   0  0  0  0  0  0  0  0  0  0  0  0
    2.3737   -1.3928    2.0881 C   0  0  0  0  0  0  0  0  0  0  0  0
    3.0345   -1.8126    3.2453 C   0  0  0  0  0  0  0  0  0  0  0  0
    4.2564   -1.1999    3.5261 C   0  0  0  0  0  0  0  0  0  0  0  0
    5.1200   -1.3444    4.5813 N   0  0  0  0  0  0  0  0  0  0  0  0
    6.2091   -0.5607    4.5076 N   0  0  0  0  0  0  0  0  0  0  0  0
    6.0294    0.1172    3.3716 C   0  0  0  0  0  0  0  0  0  0  0  0
    4.8324   -0.2342    2.7061 C   0  0  0  0  0  0  0  0  0  0  0  0
    4.1666    0.1677    1.5308 C   0  0  0  0  0  0  0  0  0  0  0  0
    3.7213    0.0532   -1.1461 H   0  0  0  0  0  0  0  0  0  0  0  0
    0.2502    1.4499   -1.3814 H   0  0  0  0  0  0  0  0  0  0  0  0
   -0.7680    2.1250   -3.5023 H   0  0  0  0  0  0  0  0  0  0  0  0
    3.8643    0.3308   -3.4941 H   0  0  0  0  0  0  0  0  0  0  0  0
    1.3986   -1.8204    1.8548 H   0  0  0  0  0  0  0  0  0  0  0  0
    2.5948   -2.5554    3.9032 H   0  0  0  0  0  0  0  0  0  0  0  0
    5.0141   -1.9498    5.3876 H   0  0  0  0  0  0  0  0  0  0  0  0
    6.7736    0.8448    3.0766 H   0  0  0  0  0  0  0  0  0  0  0  0
    4.5842    0.9536    0.9106 H   0  0  0  0  0  0  0  0  0  0  0  0
  1  2  2  0  0  0  0
  2  3  1  0  0  0  0
  2 12  1  0  0  0  0
  3  4  1  0  0  0  0
  3 21  1  0  0  0  0
  4  5  1  0  0  0  0
  4 11  2  0  0  0  0
  5  6  2  0  0  0  0
  5 22  1  0  0  0  0
  6  7  1  0  0  0  0
  6 23  1  0  0  0  0
  7  8  1  0  0  0  0
  7  9  2  0  0  0  0
  9 10  1  0  0  0  0
  9 11  1  0  0  0  0
 11 24  1  0  0  0  0
 12 13  1  0  0  0  0
 12 20  2  0  0  0  0
 13 14  2  0  0  0  0
 13 25  1  0  0  0  0
 14 15  1  0  0  0  0
 14 26  1  0  0  0  0
 15 16  1  0  0  0  0
 15 19  2  0  0  0  0
 16 17  1  0  0  0  0
 16 27  1  0  0  0  0
 17 18  2  0  0  0  0
 18 19  1  0  0  0  0
 18 28  1  0  0  0  0
 19 20  1  0  0  0  0
 20 29  1  0  0  0  0
M  END
>  <Energy>
43.5774

$$$$

 OpenBabel04232614443D

 32 35  0  0  0  0  0  0  0  0999 V2000
   -1.8500    2.2828    0.0185 C   0  0  0  0  0  0  0  0  0  0  0  0
   -1.3752    0.8551    0.0265 C   0  0  0  0  0  0  0  0  0  0  0  0
   -2.3223   -0.1721    0.0075 C   0  0  0  0  0  0  0  0  0  0  0  0
   -1.8798   -1.4804    0.0013 C   0  0  0  0  0  0  0  0  0  0  0  0
   -0.5801   -1.8338    0.0090 N   0  0  0  0  0  0  0  0  0  0  0  0
    0.3382   -0.8551    0.0203 C   0  0  0  0  0  0  0  0  0  0  0  0
    1.6761   -1.2158    0.0052 C   0  0  0  0  0  0  0  0  0  0  0  0
    2.6961   -0.2605   -0.0056 C   0  0  0  0  0  0  0  0  0  0  0  0
    2.3919    1.1019    0.0112 C   0  0  0  0  0  0  0  0  0  0  0  0
    3.4730    2.0808   -0.0304 C   0  0  0  0  0  0  0  0  0  0  0  0
    4.7703    1.8673   -0.1700 N   0  0  0  0  0  0  0  0  0  0  0  0
    5.3105    3.1263   -0.1655 C   0  0  0  0  0  0  0  0  0  0  0  0
    6.6364    3.5575   -0.2871 C   0  0  0  0  0  0  0  0  0  0  0  0
    6.8884    4.9365   -0.2397 C   0  0  0  0  0  0  0  0  0  0  0  0
    5.8456    5.8586   -0.0760 C   0  0  0  0  0  0  0  0  0  0  0  0
    4.5134    5.4415    0.0409 C   0  0  0  0  0  0  0  0  0  0  0  0
    4.3074    4.0686   -0.0120 C   0  0  0  0  0  0  0  0  0  0  0  0
    3.1194    3.4038    0.0733 O   0  0  0  0  0  0  0  0  0  0  0  0
    1.0427    1.4787    0.0435 C   0  0  0  0  0  0  0  0  0  0  0  0
    0.0010    0.5187    0.0351 C   0  0  0  0  0  0  0  0  0  0  0  0
   -2.9434    2.3433    0.0041 H   0  0  0  0  0  0  0  0  0  0  0  0
   -1.4823    2.7998   -0.8739 H   0  0  0  0  0  0  0  0  0  0  0  0
   -1.5039    2.8057    0.9157 H   0  0  0  0  0  0  0  0  0  0  0  0
   -3.3867    0.0359   -0.0075 H   0  0  0  0  0  0  0  0  0  0  0  0
   -2.5823   -2.3086   -0.0148 H   0  0  0  0  0  0  0  0  0  0  0  0
    1.9360   -2.2716   -0.0105 H   0  0  0  0  0  0  0  0  0  0  0  0
    3.7330   -0.5920   -0.0334 H   0  0  0  0  0  0  0  0  0  0  0  0
    7.4387    2.8395   -0.4134 H   0  0  0  0  0  0  0  0  0  0  0  0
    7.9125    5.2933   -0.3310 H   0  0  0  0  0  0  0  0  0  0  0  0
    6.0759    6.9218   -0.0387 H   0  0  0  0  0  0  0  0  0  0  0  0
    3.6952    6.1391    0.1656 H   0  0  0  0  0  0  0  0  0  0  0  0
    0.7959    2.5382    0.0612 H   0  0  0  0  0  0  0  0  0  0  0  0
  1  2  1  0  0  0  0
  1 21  1  0  0  0  0
  1 22  1  0  0  0  0
  1 23  1  0  0  0  0
  2  3  1  0  0  0  0
  2 20  2  0  0  0  0
  3  4  2  0  0  0  0
  3 24  1  0  0  0  0
  4  5  1  0  0  0  0
  4 25  1  0  0  0  0
  5  6  2  0  0  0  0
  6  7  1  0  0  0  0
  6 20  1  0  0  0  0
  7  8  2  0  0  0  0
  7 26  1  0  0  0  0
  8  9  1  0  0  0  0
  8 27  1  0  0  0  0
  9 10  1  0  0  0  0
  9 19  2  0  0  0  0
 10 11  2  0  0  0  0
 10 18  1  0  0  0  0
 11 12  1  0  0  0  0
 12 13  1  0  0  0  0
 12 17  2  0  0  0  0
 13 14  2  0  0  0  0
 13 28  1  0  0  0  0
 14 15  1  0  0  0  0
 14 29  1  0  0  0  0
 15 16  2  0  0  0  0
 15 30  1  0  0  0  0
 16 17  1  0  0  0  0
 16 31  1  0  0  0  0
 17 18  1  0  0  0  0
 19 20  1  0  0  0  0
 19 32  1  0  0  0  0
M  END
>  <Energy>
61.2102

$$$$

 OpenBabel04232614443D

 29 32  0  0  0  0  0  0  0  0999 V2000
    1.3164    0.4128   -0.0053 N   0  0  0  0  0  0  0  0  0  0  0  0
    2.6427    0.2171    0.0080 C   0  0  0  0  0  0  0  0  0  0  0  0
    3.3277   -1.3648    0.0106 S   0  0  0  0  0  0  0  0  0  0  0  0
    4.9664   -0.7907    0.0647 C   0  0  0  0  0  0  0  0  0  0  0  0
    6.0723   -1.7393    0.1461 C   0  0  0  0  0  0  0  0  0  0  0  0
    7.2320   -1.5986   -0.5929 C   0  0  0  0  0  0  0  0  0  0  0  0
    8.3521   -2.3308   -0.4083 N   0  0  0  0  0  0  0  0  0  0  0  0
    8.2697   -3.2850    0.5295 C   0  0  0  0  0  0  0  0  0  0  0  0
    7.1789   -3.5853    1.2486 N   0  0  0  0  0  0  0  0  0  0  0  0
    6.0989   -2.8006    1.0331 C   0  0  0  0  0  0  0  0  0  0  0  0
    4.9503    0.5816    0.0458 C   0  0  0  0  0  0  0  0  0  0  0  0
    3.6460    1.1471    0.0191 C   0  0  0  0  0  0  0  0  0  0  0  0
    3.7259    2.5937    0.0262 C   0  0  0  0  0  0  0  0  0  0  0  0
    2.8192    3.4017    0.0155 O   0  0  0  0  0  0  0  0  0  0  0  0
    5.2005    2.8735    0.0543 C   0  0  0  0  0  0  0  0  0  0  0  0
    5.8383    4.1016    0.0554 C   0  0  0  0  0  0  0  0  0  0  0  0
    7.2361    4.0991    0.0721 C   0  0  0  0  0  0  0  0  0  0  0  0
    7.9552    2.8905    0.1142 C   0  0  0  0  0  0  0  0  0  0  0  0
    7.2964    1.6556    0.1425 C   0  0  0  0  0  0  0  0  0  0  0  0
    5.9170    1.6515    0.0855 C   0  0  0  0  0  0  0  0  0  0  0  0
    0.6628   -0.3616    0.0752 H   0  0  0  0  0  0  0  0  0  0  0  0
    0.9093    1.3427    0.0760 H   0  0  0  0  0  0  0  0  0  0  0  0
    7.3193   -0.8398   -1.3665 H   0  0  0  0  0  0  0  0  0  0  0  0
    9.1672   -3.8593    0.7302 H   0  0  0  0  0  0  0  0  0  0  0  0
    5.2369   -3.0527    1.6454 H   0  0  0  0  0  0  0  0  0  0  0  0
    5.2757    5.0285    0.0381 H   0  0  0  0  0  0  0  0  0  0  0  0
    7.7816    5.0410    0.0578 H   0  0  0  0  0  0  0  0  0  0  0  0
    9.0446    2.9129    0.1276 H   0  0  0  0  0  0  0  0  0  0  0  0
    7.8893    0.7536    0.2123 H   0  0  0  0  0  0  0  0  0  0  0  0
  1  2  1  0  0  0  0
  1 21  1  0  0  0  0
  1 22  1  0  0  0  0
  2  3  1  0  0  0  0
  2 12  2  0  0  0  0
  3  4  1  0  0  0  0
  4  5  1  0  0  0  0
  4 11  2  0  0  0  0
  5  6  1  0  0  0  0
  5 10  2  0  0  0  0
  6  7  2  0  0  0  0
  6 23  1  0  0  0  0
  7  8  1  0  0  0  0
  8  9  2  0  0  0  0
  8 24  1  0  0  0  0
  9 10  1  0  0  0  0
 10 25  1  0  0  0  0
 11 12  1  0  0  0  0
 11 20  1  0  0  0  0
 12 13  1  0  0  0  0
 13 14  2  0  0  0  0
 13 15  1  0  0  0  0
 15 16  1  0  0  0  0
 15 20  2  0  0  0  0
 16 17  2  0  0  0  0
 16 26  1  0  0  0  0
 17 18  1  0  0  0  0
 17 27  1  0  0  0  0
 18 19  2  0  0  0  0
 18 28  1  0  0  0  0
 19 20  1  0  0  0  0
 19 29  1  0  0  0  0
M  END
>  <Energy>
73.394

$$$$

 OpenBabel04232614443D

 30 32  0  0  0  0  0  0  0  0999 V2000
    1.1868    0.2380    0.4149 C   0  0  0  0  0  0  0  0  0  0  0  0
    2.5611   -0.0282    0.1560 O   0  0  0  0  0  0  0  0  0  0  0  0
    3.2163    0.9287   -0.5660 C   0  0  0  0  0  0  0  0  0  0  0  0
    2.9426    2.2909   -0.5244 C   0  0  0  0  0  0  0  0  0  0  0  0
    3.6940    3.1754   -1.3051 C   0  0  0  0  0  0  0  0  0  0  0  0
    4.7114    2.7176   -2.1625 C   0  0  0  0  0  0  0  0  0  0  0  0
    4.9641    1.3473   -2.2094 C   0  0  0  0  0  0  0  0  0  0  0  0
    4.2478    0.4666   -1.3787 C   0  0  0  0  0  0  0  0  0  0  0  0
    5.9480    0.7263   -3.1154 C   0  0  0  0  0  0  0  0  0  0  0  0
    6.5594   -0.2783   -2.7497 O   0  0  0  0  0  0  0  0  0  0  0  0
    6.0517    1.1254   -4.4224 N   0  0  0  0  0  0  0  0  0  0  0  0
    5.7009    2.3253   -5.0561 C   0  0  0  0  0  0  0  0  0  0  0  0
    5.7080    2.2970   -6.4603 C   0  0  0  0  0  0  0  0  0  0  0  0
    5.5030    3.4613   -7.1950 C   0  0  0  0  0  0  0  0  0  0  0  0
    5.4735    3.3984   -8.9124 Cl  0  0  0  0  0  0  0  0  0  0  0  0
    5.3334    4.6767   -6.5457 C   0  0  0  0  0  0  0  0  0  0  0  0
    5.3191    4.7115   -5.1504 C   0  0  0  0  0  0  0  0  0  0  0  0
    5.4610    3.5368   -4.3874 C   0  0  0  0  0  0  0  0  0  0  0  0
    5.3597    3.6572   -2.9845 N   0  0  0  0  0  0  0  0  0  0  0  0
    0.7448   -0.6712    0.8337 H   0  0  0  0  0  0  0  0  0  0  0  0
    0.6479    0.4778   -0.5089 H   0  0  0  0  0  0  0  0  0  0  0  0
    1.0704    1.0343    1.1557 H   0  0  0  0  0  0  0  0  0  0  0  0
    2.1603    2.6948    0.1094 H   0  0  0  0  0  0  0  0  0  0  0  0
    3.4511    4.2350   -1.2611 H   0  0  0  0  0  0  0  0  0  0  0  0
    4.4699   -0.5992   -1.3993 H   0  0  0  0  0  0  0  0  0  0  0  0
    6.5168    0.4232   -4.9840 H   0  0  0  0  0  0  0  0  0  0  0  0
    5.8577    1.3575   -6.9873 H   0  0  0  0  0  0  0  0  0  0  0  0
    5.2057    5.5948   -7.1126 H   0  0  0  0  0  0  0  0  0  0  0  0
    5.1808    5.6736   -4.6612 H   0  0  0  0  0  0  0  0  0  0  0  0
    5.1880    4.6116   -2.6871 H   0  0  0  0  0  0  0  0  0  0  0  0
  1  2  1  0  0  0  0
  1 20  1  0  0  0  0
  1 21  1  0  0  0  0
  1 22  1  0  0  0  0
  2  3  1  0  0  0  0
  3  4  1  0  0  0  0
  3  8  2  0  0  0  0
  4  5  2  0  0  0  0
  4 23  1  0  0  0  0
  5  6  1  0  0  0  0
  5 24  1  0  0  0  0
  6  7  2  0  0  0  0
  6 19  1  0  0  0  0
  7  8  1  0  0  0  0
  7  9  1  0  0  0  0
  8 25  1  0  0  0  0
  9 10  2  0  0  0  0
  9 11  1  0  0  0  0
 11 12  1  0  0  0  0
 11 26  1  0  0  0  0
 12 13  1  0  0  0  0
 12 18  2  0  0  0  0
 13 14  2  0  0  0  0
 13 27  1  0  0  0  0
 14 15  1  0  0  0  0
 14 16  1  0  0  0  0
 16 17  2  0  0  0  0
 16 28  1  0  0  0  0
 17 18  1  0  0  0  0
 17 29  1  0  0  0  0
 18 19  1  0  0  0  0
 19 30  1  0  0  0  0
M  END
>  <Energy>
55.2527

$$$$

 OpenBabel04232614443D

 46 48  0  0  0  0  0  0  0  0999 V2000
    2.5992   -0.3016    0.0613 C   0  0  0  0  0  0  0  0  0  0  0  0
    1.1045   -0.2042    0.1359 C   0  0  0  0  0  0  0  0  0  0  0  0
    0.4416    0.9249   -0.3454 C   0  0  0  0  0  0  0  0  0  0  0  0
   -0.9555    0.9885   -0.3159 C   0  0  0  0  0  0  0  0  0  0  0  0
   -1.7361   -0.0758    0.1741 C   0  0  0  0  0  0  0  0  0  0  0  0
   -3.2138   -0.0443    0.0756 C   0  0  0  0  0  0  0  0  0  0  0  0
   -3.8431    0.5427   -1.0468 C   0  0  0  0  0  0  0  0  0  0  0  0
   -5.2304    0.5847   -1.1457 C   0  0  0  0  0  0  0  0  0  0  0  0
   -5.9355    0.0336   -0.1034 C   0  0  0  0  0  0  0  0  0  0  0  0
   -5.2551   -0.5545    0.9625 C   0  0  0  0  0  0  0  0  0  0  0  0
   -3.9207   -0.6222    1.0910 N   0  0  0  0  0  0  0  0  0  0  0  0
   -6.2264   -1.0577    1.8335 N   0  0  0  0  0  0  0  0  0  0  0  0
   -5.9674   -1.7773    3.0402 C   0  0  0  0  0  0  0  0  0  0  0  0
   -7.5027   -0.7908    1.3219 C   0  0  0  0  0  0  0  0  0  0  0  0
   -8.5744   -1.1153    1.8153 O   0  0  0  0  0  0  0  0  0  0  0  0
   -7.3113   -0.0844    0.1130 N   0  0  0  0  0  0  0  0  0  0  0  0
   -8.3691    0.3573   -0.7643 C   0  0  0  0  0  0  0  0  0  0  0  0
   -8.9138    1.7901   -0.5007 C   0  0  0  0  0  0  0  0  0  0  0  0
   -7.8579    2.8574   -0.8335 C   0  0  0  0  0  0  0  0  0  0  0  0
  -10.1398    2.0006   -1.4144 C   0  0  0  0  0  0  0  0  0  0  0  0
   -9.3655    1.9823    0.9567 C   0  0  0  0  0  0  0  0  0  0  0  0
   -1.0524   -1.1820    0.7024 C   0  0  0  0  0  0  0  0  0  0  0  0
    0.3478   -1.2489    0.6796 C   0  0  0  0  0  0  0  0  0  0  0  0
    3.0365    0.5942   -0.3919 H   0  0  0  0  0  0  0  0  0  0  0  0
    2.8901   -1.1598   -0.5533 H   0  0  0  0  0  0  0  0  0  0  0  0
    3.0243   -0.4120    1.0638 H   0  0  0  0  0  0  0  0  0  0  0  0
    1.0007    1.7610   -0.7579 H   0  0  0  0  0  0  0  0  0  0  0  0
   -1.4291    1.8923   -0.6941 H   0  0  0  0  0  0  0  0  0  0  0  0
   -3.2463    0.9520   -1.8582 H   0  0  0  0  0  0  0  0  0  0  0  0
   -5.7107    1.0263   -2.0078 H   0  0  0  0  0  0  0  0  0  0  0  0
   -4.8979   -1.8725    3.2381 H   0  0  0  0  0  0  0  0  0  0  0  0
   -6.4200   -2.7715    2.9598 H   0  0  0  0  0  0  0  0  0  0  0  0
   -6.4538   -1.2546    3.8708 H   0  0  0  0  0  0  0  0  0  0  0  0
   -9.1946   -0.3568   -0.6547 H   0  0  0  0  0  0  0  0  0  0  0  0
   -8.0223    0.2668   -1.8012 H   0  0  0  0  0  0  0  0  0  0  0  0
   -7.4104    2.6837   -1.8172 H   0  0  0  0  0  0  0  0  0  0  0  0
   -7.0552    2.8717   -0.0883 H   0  0  0  0  0  0  0  0  0  0  0  0
   -8.2985    3.8610   -0.8498 H   0  0  0  0  0  0  0  0  0  0  0  0
   -9.9264    1.6987   -2.4457 H   0  0  0  0  0  0  0  0  0  0  0  0
  -10.4527    3.0506   -1.4323 H   0  0  0  0  0  0  0  0  0  0  0  0
  -10.9950    1.4096   -1.0661 H   0  0  0  0  0  0  0  0  0  0  0  0
   -8.5284    1.8890    1.6563 H   0  0  0  0  0  0  0  0  0  0  0  0
  -10.1259    1.2456    1.2373 H   0  0  0  0  0  0  0  0  0  0  0  0
   -9.7994    2.9784    1.1034 H   0  0  0  0  0  0  0  0  0  0  0  0
   -1.6138   -2.0194    1.1142 H   0  0  0  0  0  0  0  0  0  0  0  0
    0.8440   -2.1338    1.0756 H   0  0  0  0  0  0  0  0  0  0  0  0
  1  2  1  0  0  0  0
  1 24  1  0  0  0  0
  1 25  1  0  0  0  0
  1 26  1  0  0  0  0
  2  3  1  0  0  0  0
  2 23  2  0  0  0  0
  3  4  2  0  0  0  0
  3 27  1  0  0  0  0
  4  5  1  0  0  0  0
  4 28  1  0  0  0  0
  5  6  1  0  0  0  0
  5 22  2  0  0  0  0
  6  7  1  0  0  0  0
  6 11  2  0  0  0  0
  7  8  2  0  0  0  0
  7 29  1  0  0  0  0
  8  9  1  0  0  0  0
  8 30  1  0  0  0  0
  9 10  2  0  0  0  0
  9 16  1  0  0  0  0
 10 11  1  0  0  0  0
 10 12  1  0  0  0  0
 12 13  1  0  0  0  0
 12 14  1  0  0  0  0
 13 31  1  0  0  0  0
 13 32  1  0  0  0  0
 13 33  1  0  0  0  0
 14 15  2  0  0  0  0
 14 16  1  0  0  0  0
 16 17  1  0  0  0  0
 17 18  1  0  0  0  0
 17 34  1  0  0  0  0
 17 35  1  0  0  0  0
 18 19  1  0  0  0  0
 18 20  1  0  0  0  0
 18 21  1  0  0  0  0
 19 36  1  0  0  0  0
 19 37  1  0  0  0  0
 19 38  1  0  0  0  0
 20 39  1  0  0  0  0
 20 40  1  0  0  0  0
 20 41  1  0  0  0  0
 21 42  1  0  0  0  0
 21 43  1  0  0  0  0
 21 44  1  0  0  0  0
 22 23  1  0  0  0  0
 22 45  1  0  0  0  0
 23 46  1  0  0  0  0
M  END
>  <Energy>
17.597

$$$$

 OpenBabel04232614443D

 29 31  0  0  0  0  0  0  0  0999 V2000
    0.8820   -0.0171    0.0160 F   0  0  0  0  0  0  0  0  0  0  0  0
    2.2196   -0.0406    0.1200 C   0  0  0  0  0  0  0  0  0  0  0  0
    2.9089    1.1727    0.1024 C   0  0  0  0  0  0  0  0  0  0  0  0
    4.2996    1.1835    0.2159 C   0  0  0  0  0  0  0  0  0  0  0  0
    4.9913   -0.0224    0.3289 C   0  0  0  0  0  0  0  0  0  0  0  0
    4.2886   -1.2274    0.3442 C   0  0  0  0  0  0  0  0  0  0  0  0
    4.9823   -2.3705    0.4594 F   0  0  0  0  0  0  0  0  0  0  0  0
    2.8984   -1.2499    0.2541 C   0  0  0  0  0  0  0  0  0  0  0  0
    2.1840   -2.4875    0.3413 C   0  0  0  0  0  0  0  0  0  0  0  0
    1.5891   -3.5229    0.4549 C   0  0  0  0  0  0  0  0  0  0  0  0
    0.8838   -4.7591    0.6024 C   0  0  0  0  0  0  0  0  0  0  0  0
    1.5681   -5.9682    0.5353 C   0  0  0  0  0  0  0  0  0  0  0  0
    0.8665   -7.1726    0.6548 C   0  0  0  0  0  0  0  0  0  0  0  0
   -0.5101   -7.2005    0.8299 C   0  0  0  0  0  0  0  0  0  0  0  0
   -1.1390   -8.3833    0.9050 N   0  0  0  0  0  0  0  0  0  0  0  0
   -2.4794   -8.3657    1.0521 C   0  0  0  0  0  0  0  0  0  0  0  0
   -3.2104   -9.9170    1.1022 Cl  0  0  0  0  0  0  0  0  0  0  0  0
   -3.2460   -7.2210    1.1483 C   0  0  0  0  0  0  0  0  0  0  0  0
   -2.5890   -5.9987    1.0820 C   0  0  0  0  0  0  0  0  0  0  0  0
   -1.1978   -5.9680    0.9111 C   0  0  0  0  0  0  0  0  0  0  0  0
   -0.4953   -4.7549    0.8054 C   0  0  0  0  0  0  0  0  0  0  0  0
    2.3535    2.1019    0.0089 H   0  0  0  0  0  0  0  0  0  0  0  0
    4.8408    2.1264    0.2177 H   0  0  0  0  0  0  0  0  0  0  0  0
    6.0741   -0.0348    0.4141 H   0  0  0  0  0  0  0  0  0  0  0  0
    2.6451   -5.9882    0.3840 H   0  0  0  0  0  0  0  0  0  0  0  0
    1.4083   -8.1139    0.5953 H   0  0  0  0  0  0  0  0  0  0  0  0
   -4.3221   -7.2725    1.2625 H   0  0  0  0  0  0  0  0  0  0  0  0
   -3.1623   -5.0777    1.1516 H   0  0  0  0  0  0  0  0  0  0  0  0
   -1.0278   -3.8063    0.8660 H   0  0  0  0  0  0  0  0  0  0  0  0
  1  2  1  0  0  0  0
  2  3  1  0  0  0  0
  2  8  2  0  0  0  0
  3  4  2  0  0  0  0
  3 22  1  0  0  0  0
  4  5  1  0  0  0  0
  4 23  1  0  0  0  0
  5  6  2  0  0  0  0
  5 24  1  0  0  0  0
  6  7  1  0  0  0  0
  6  8  1  0  0  0  0
  8  9  1  0  0  0  0
  9 10  3  0  0  0  0
 10 11  1  0  0  0  0
 11 12  1  0  0  0  0
 11 21  2  0  0  0  0
 12 13  2  0  0  0  0
 12 25  1  0  0  0  0
 13 14  1  0  0  0  0
 13 26  1  0  0  0  0
 14 15  1  0  0  0  0
 14 20  2  0  0  0  0
 15 16  2  0  0  0  0
 16 17  1  0  0  0  0
 16 18  1  0  0  0  0
 18 19  2  0  0  0  0
 18 27  1  0  0  0  0
 19 20  1  0  0  0  0
 19 28  1  0  0  0  0
 20 21  1  0  0  0  0
 21 29  1  0  0  0  0
M  END
>  <Energy>
41.2344

$$$$

 OpenBabel04232614443D

 33 35  0  0  0  0  0  0  0  0999 V2000
    2.4404    0.2279   -0.1341 C   0  0  0  0  0  0  0  0  0  0  0  0
    0.9407    0.1797   -0.0973 C   0  0  0  0  0  0  0  0  0  0  0  0
    0.2455    0.2022    1.1190 C   0  0  0  0  0  0  0  0  0  0  0  0
   -1.1517    0.1722    1.1377 C   0  0  0  0  0  0  0  0  0  0  0  0
   -1.8582    0.1240   -0.0689 C   0  0  0  0  0  0  0  0  0  0  0  0
   -3.6419    0.0433   -0.0443 S   0  0  0  0  0  0  0  0  0  0  0  0
   -4.0737   -0.6116   -1.2662 O   0  0  0  0  0  0  0  0  0  0  0  0
   -3.9844   -0.5697    1.2313 O   0  0  0  0  0  0  0  0  0  0  0  0
   -4.1551    1.6951   -0.0446 C   0  0  0  0  0  0  0  0  0  0  0  0
   -4.9560    2.1265    0.9440 C   0  0  0  0  0  0  0  0  0  0  0  0
   -5.4003    3.5105    0.9684 C   0  0  0  0  0  0  0  0  0  0  0  0
   -6.2429    4.0079    1.9641 C   0  0  0  0  0  0  0  0  0  0  0  0
   -6.6106    5.3578    1.9582 C   0  0  0  0  0  0  0  0  0  0  0  0
   -6.1376    6.2143    0.9610 C   0  0  0  0  0  0  0  0  0  0  0  0
   -5.3056    5.7217   -0.0418 C   0  0  0  0  0  0  0  0  0  0  0  0
   -4.9532    4.3748   -0.0252 C   0  0  0  0  0  0  0  0  0  0  0  0
   -4.1292    3.9062   -1.0633 O   0  0  0  0  0  0  0  0  0  0  0  0
   -3.7474    2.5686   -1.1525 C   0  0  0  0  0  0  0  0  0  0  0  0
   -3.0940    2.1805   -2.1116 O   0  0  0  0  0  0  0  0  0  0  0  0
   -1.1742    0.0579   -1.2841 C   0  0  0  0  0  0  0  0  0  0  0  0
    0.2204    0.1039   -1.2966 C   0  0  0  0  0  0  0  0  0  0  0  0
    2.8669    0.2739    0.8731 H   0  0  0  0  0  0  0  0  0  0  0  0
    2.7744    1.1156   -0.6811 H   0  0  0  0  0  0  0  0  0  0  0  0
    2.8351   -0.6672   -0.6259 H   0  0  0  0  0  0  0  0  0  0  0  0
    0.7897    0.2350    2.0610 H   0  0  0  0  0  0  0  0  0  0  0  0
   -1.6713    0.1706    2.0932 H   0  0  0  0  0  0  0  0  0  0  0  0
   -5.2860    1.4757    1.7493 H   0  0  0  0  0  0  0  0  0  0  0  0
   -6.6207    3.3598    2.7515 H   0  0  0  0  0  0  0  0  0  0  0  0
   -7.2663    5.7442    2.7356 H   0  0  0  0  0  0  0  0  0  0  0  0
   -6.4213    7.2641    0.9653 H   0  0  0  0  0  0  0  0  0  0  0  0
   -4.9385    6.3783   -0.8253 H   0  0  0  0  0  0  0  0  0  0  0  0
   -1.7146   -0.0111   -2.2267 H   0  0  0  0  0  0  0  0  0  0  0  0
    0.7434    0.0774   -2.2506 H   0  0  0  0  0  0  0  0  0  0  0  0
  1  2  1  0  0  0  0
  1 22  1  0  0  0  0
  1 23  1  0  0  0  0
  1 24  1  0  0  0  0
  2  3  1  0  0  0  0
  2 21  2  0  0  0  0
  3  4  2  0  0  0  0
  3 25  1  0  0  0  0
  4  5  1  0  0  0  0
  4 26  1  0  0  0  0
  5  6  1  0  0  0  0
  5 20  2  0  0  0  0
  6  7  2  0  0  0  0
  6  8  2  0  0  0  0
  6  9  1  0  0  0  0
  9 10  2  0  0  0  0
  9 18  1  0  0  0  0
 10 11  1  0  0  0  0
 10 27  1  0  0  0  0
 11 12  1  0  0  0  0
 11 16  2  0  0  0  0
 12 13  2  0  0  0  0
 12 28  1  0  0  0  0
 13 14  1  0  0  0  0
 13 29  1  0  0  0  0
 14 15  2  0  0  0  0
 14 30  1  0  0  0  0
 15 16  1  0  0  0  0
 15 31  1  0  0  0  0
 16 17  1  0  0  0  0
 17 18  1  0  0  0  0
 18 19  2  0  0  0  0
 20 21  1  0  0  0  0
 20 32  1  0  0  0  0
 21 33  1  0  0  0  0
M  END
>  <Energy>
49.6925

$$$$

 OpenBabel04232614443D

 28 30  0  0  0  0  0  0  0  0999 V2000
    1.2710    0.2888    0.6647 O   0  0  0  0  0  0  0  0  0  0  0  0
    2.4593    0.1839    0.4023 C   0  0  0  0  0  0  0  0  0  0  0  0
    3.1292   -1.0155    0.3675 N   0  0  0  0  0  0  0  0  0  0  0  0
    4.3443   -0.7258    0.0463 C   0  0  0  0  0  0  0  0  0  0  0  0
    5.4443   -1.6798   -0.0957 C   0  0  0  0  0  0  0  0  0  0  0  0
    6.5638   -1.4087   -0.8771 C   0  0  0  0  0  0  0  0  0  0  0  0
    6.7060   -0.2294   -1.4986 F   0  0  0  0  0  0  0  0  0  0  0  0
    7.5596   -2.3729   -1.0605 C   0  0  0  0  0  0  0  0  0  0  0  0
    7.4430   -3.6244   -0.4547 C   0  0  0  0  0  0  0  0  0  0  0  0
    6.3372   -3.8991    0.3453 C   0  0  0  0  0  0  0  0  0  0  0  0
    5.3501   -2.9297    0.5216 C   0  0  0  0  0  0  0  0  0  0  0  0
    4.3159   -3.2365    1.3168 F   0  0  0  0  0  0  0  0  0  0  0  0
    4.6056    0.5869   -0.1624 O   0  0  0  0  0  0  0  0  0  0  0  0
    3.3442    1.1958    0.0900 N   0  0  0  0  0  0  0  0  0  0  0  0
    3.1989    2.5886    0.0629 C   0  0  0  0  0  0  0  0  0  0  0  0
    2.0167    3.1939    0.5167 C   0  0  0  0  0  0  0  0  0  0  0  0
    1.8583    4.5835    0.4859 C   0  0  0  0  0  0  0  0  0  0  0  0
    2.8805    5.3824   -0.0124 C   0  0  0  0  0  0  0  0  0  0  0  0
    2.6787    7.0893   -0.0689 Cl  0  0  0  0  0  0  0  0  0  0  0  0
    4.0627    4.8024   -0.4668 C   0  0  0  0  0  0  0  0  0  0  0  0
    4.2251    3.4104   -0.4211 C   0  0  0  0  0  0  0  0  0  0  0  0
    8.4171   -2.1462   -1.6883 H   0  0  0  0  0  0  0  0  0  0  0  0
    8.2078   -4.3832   -0.6058 H   0  0  0  0  0  0  0  0  0  0  0  0
    6.2271   -4.8647    0.8322 H   0  0  0  0  0  0  0  0  0  0  0  0
    1.1956    2.6045    0.9182 H   0  0  0  0  0  0  0  0  0  0  0  0
    0.9345    5.0254    0.8516 H   0  0  0  0  0  0  0  0  0  0  0  0
    4.8598    5.4267   -0.8623 H   0  0  0  0  0  0  0  0  0  0  0  0
    5.1543    2.9824   -0.7891 H   0  0  0  0  0  0  0  0  0  0  0  0
  1  2  2  0  0  0  0
  2  3  1  0  0  0  0
  2 14  1  0  0  0  0
  3  4  2  0  0  0  0
  4  5  1  0  0  0  0
  4 13  1  0  0  0  0
  5  6  1  0  0  0  0
  5 11  2  0  0  0  0
  6  7  1  0  0  0  0
  6  8  2  0  0  0  0
  8  9  1  0  0  0  0
  8 22  1  0  0  0  0
  9 10  2  0  0  0  0
  9 23  1  0  0  0  0
 10 11  1  0  0  0  0
 10 24  1  0  0  0  0
 11 12  1  0  0  0  0
 13 14  1  0  0  0  0
 14 15  1  0  0  0  0
 15 16  1  0  0  0  0
 15 21  2  0  0  0  0
 16 17  2  0  0  0  0
 16 25  1  0  0  0  0
 17 18  1  0  0  0  0
 17 26  1  0  0  0  0
 18 19  1  0  0  0  0
 18 20  2  0  0  0  0
 20 21  1  0  0  0  0
 20 27  1  0  0  0  0
 21 28  1  0  0  0  0
M  END
>  <Energy>
33.3546

$$$$

 OpenBabel04232614443D

 39 41  0  0  1  0  0  0  0  0999 V2000
    0.9302    0.0038   -0.0605 C   0  0  0  0  0  0  0  0  0  0  0  0
    2.4328   -0.0338   -0.0551 C   0  0  0  0  0  0  0  0  0  0  0  0
    3.1816    1.1507   -0.0505 C   0  0  0  0  0  0  0  0  0  0  0  0
    4.5817    1.1265   -0.0441 C   0  0  0  0  0  0  0  0  0  0  0  0
    5.4808    2.5887   -0.0274 Cl  0  0  0  0  0  0  0  0  0  0  0  0
    5.1997   -0.1220   -0.0369 C   0  0  0  0  0  0  0  0  0  0  0  0
    6.5399   -0.3690   -0.0270 O   0  0  0  0  0  0  0  0  0  0  0  0
    6.7278   -1.7231    0.0364 C   0  0  0  0  0  0  0  0  0  0  0  0
    8.0751   -2.2904    0.0537 C   0  0  0  0  0  0  0  0  0  0  0  0
    8.2928   -3.3629   -0.5209 O   0  0  0  0  0  0  0  0  0  0  0  0
    9.1314   -1.6753    0.7702 N   0  0  0  0  0  0  0  0  0  0  0  0
    9.0789   -0.3488    1.3765 C   0  0  0  0  0  0  0  0  0  0  0  0
   10.4234   -2.4071    0.7750 C   0  0  3  0  0  0  0  0  0  0  0  0
   11.3843   -2.1121    1.9131 C   0  0  0  0  0  0  0  0  0  0  0  0
   12.3149   -1.0581    1.3550 C   0  0  0  0  0  0  0  0  0  0  0  0
   12.3103   -1.1834   -0.0688 O   0  0  0  0  0  0  0  0  0  0  0  0
   11.2837   -2.1135   -0.4551 C   0  0  0  0  0  0  0  0  0  0  0  0
    5.4861   -2.3571   -0.0151 C   0  0  0  0  0  0  0  0  0  0  0  0
    5.1959   -3.8149   -0.0251 C   0  0  0  0  0  0  0  0  0  0  0  0
    4.5004   -1.3202   -0.0352 C   0  0  0  0  0  0  0  0  0  0  0  0
    3.0935   -1.2782   -0.0511 C   0  0  0  0  0  0  0  0  0  0  0  0
    0.5533    1.0322   -0.0644 H   0  0  0  0  0  0  0  0  0  0  0  0
    0.5379   -0.4942    0.8314 H   0  0  0  0  0  0  0  0  0  0  0  0
    0.5438   -0.4987   -0.9533 H   0  0  0  0  0  0  0  0  0  0  0  0
    2.6702    2.1136   -0.0517 H   0  0  0  0  0  0  0  0  0  0  0  0
    8.1088    0.1320    1.3317 H   0  0  0  0  0  0  0  0  0  0  0  0
    9.8009    0.2979    0.8718 H   0  0  0  0  0  0  0  0  0  0  0  0
    9.3282   -0.4312    2.4371 H   0  0  0  0  0  0  0  0  0  0  0  0
   10.1787   -3.4759    0.7966 H   0  0  0  0  0  0  0  0  0  0  0  0
   11.9748   -3.0155    2.1149 H   0  0  0  0  0  0  0  0  0  0  0  0
   10.9244   -1.8244    2.8615 H   0  0  0  0  0  0  0  0  0  0  0  0
   13.3375   -1.1756    1.7278 H   0  0  0  0  0  0  0  0  0  0  0  0
   11.9833   -0.0463    1.6055 H   0  0  0  0  0  0  0  0  0  0  0  0
   11.7915   -3.0243   -0.7926 H   0  0  0  0  0  0  0  0  0  0  0  0
   10.7260   -1.6978   -1.2990 H   0  0  0  0  0  0  0  0  0  0  0  0
    6.0990   -4.4285   -0.0074 H   0  0  0  0  0  0  0  0  0  0  0  0
    4.6271   -4.0801   -0.9227 H   0  0  0  0  0  0  0  0  0  0  0  0
    4.5946   -4.0848    0.8500 H   0  0  0  0  0  0  0  0  0  0  0  0
    2.5198   -2.2029   -0.0557 H   0  0  0  0  0  0  0  0  0  0  0  0
  1  2  1  0  0  0  0
  1 22  1  0  0  0  0
  1 23  1  0  0  0  0
  1 24  1  0  0  0  0
  2  3  1  0  0  0  0
  2 21  2  0  0  0  0
  3  4  2  0  0  0  0
  3 25  1  0  0  0  0
  4  5  1  0  0  0  0
  4  6  1  0  0  0  0
  6  7  1  0  0  0  0
  6 20  2  0  0  0  0
  7  8  1  0  0  0  0
  8  9  1  0  0  0  0
  8 18  2  0  0  0  0
  9 10  2  0  0  0  0
  9 11  1  0  0  0  0
 11 12  1  0  0  0  0
 11 13  1  0  0  0  0
 12 26  1  0  0  0  0
 12 27  1  0  0  0  0
 12 28  1  0  0  0  0
 13 14  1  0  0  0  0
 13 17  1  0  0  0  0
 13 29  1  0  0  0  0
 14 15  1  0  0  0  0
 14 30  1  0  0  0  0
 14 31  1  0  0  0  0
 15 16  1  0  0  0  0
 15 32  1  0  0  0  0
 15 33  1  0  0  0  0
 16 17  1  0  0  0  0
 17 34  1  0  0  0  0
 17 35  1  0  0  0  0
 18 19  1  0  0  0  0
 18 20  1  0  0  0  0
 19 36  1  0  0  0  0
 19 37  1  0  0  0  0
 19 38  1  0  0  0  0
 20 21  1  0  0  0  0
 21 39  1  0  0  0  0
M  END
>  <Energy>
57.3641

$$$$

 OpenBabel04232614443D

 28 30  0  0  0  0  0  0  0  0999 V2000
    1.2587   -0.5539    0.0386 C   0  0  0  0  0  0  0  0  0  0  0  0
    2.4622    0.1899   -0.0983 O   0  0  0  0  0  0  0  0  0  0  0  0
    3.1295    0.5043    1.0525 C   0  0  0  0  0  0  0  0  0  0  0  0
    2.7109    0.2256    2.3516 C   0  0  0  0  0  0  0  0  0  0  0  0
    3.5029    0.6090    3.4432 C   0  0  0  0  0  0  0  0  0  0  0  0
    4.7205    1.2800    3.2560 C   0  0  0  0  0  0  0  0  0  0  0  0
    5.5230    1.6347    4.4179 C   0  0  0  0  0  0  0  0  0  0  0  0
    5.5534    0.8216    5.5336 N   0  0  0  0  0  0  0  0  0  0  0  0
    6.3647    1.3966    6.3963 C   0  0  0  0  0  0  0  0  0  0  0  0
    6.7238    0.9720    7.6446 N   0  0  0  0  0  0  0  0  0  0  0  0
    7.5729    1.7174    8.2817 C   0  0  0  0  0  0  0  0  0  0  0  0
    8.1872    2.9809    7.7879 C   0  0  0  0  0  0  0  0  0  0  0  0
    7.7869    3.3655    6.5684 C   0  0  0  0  0  0  0  0  0  0  0  0
    6.8733    2.5824    5.8696 N   0  0  0  0  0  0  0  0  0  0  0  0
    6.2994    2.7571    4.6317 C   0  0  0  0  0  0  0  0  0  0  0  0
    6.5088    4.2636    3.5411 Br  0  0  0  0  0  0  0  0  0  0  0  0
    5.1431    1.5298    1.9466 C   0  0  0  0  0  0  0  0  0  0  0  0
    4.3466    1.1587    0.8583 C   0  0  0  0  0  0  0  0  0  0  0  0
    0.8769   -0.7575   -0.9668 H   0  0  0  0  0  0  0  0  0  0  0  0
    0.4980    0.0236    0.5735 H   0  0  0  0  0  0  0  0  0  0  0  0
    1.4411   -1.5173    0.5260 H   0  0  0  0  0  0  0  0  0  0  0  0
    1.7802   -0.2930    2.5563 H   0  0  0  0  0  0  0  0  0  0  0  0
    3.1667    0.3696    4.4514 H   0  0  0  0  0  0  0  0  0  0  0  0
    7.8887    1.4130    9.2937 H   0  0  0  0  0  0  0  0  0  0  0  0
    8.8964    3.5143    8.4035 H   0  0  0  0  0  0  0  0  0  0  0  0
    8.1533    4.2653    6.0921 H   0  0  0  0  0  0  0  0  0  0  0  0
    6.1033    1.9933    1.7431 H   0  0  0  0  0  0  0  0  0  0  0  0
    4.6872    1.3702   -0.1523 H   0  0  0  0  0  0  0  0  0  0  0  0
  1  2  1  0  0  0  0
  1 19  1  0  0  0  0
  1 20  1  0  0  0  0
  1 21  1  0  0  0  0
  2  3  1  0  0  0  0
  3  4  1  0  0  0  0
  3 18  2  0  0  0  0
  4  5  2  0  0  0  0
  4 22  1  0  0  0  0
  5  6  1  0  0  0  0
  5 23  1  0  0  0  0
  6  7  1  0  0  0  0
  6 17  2  0  0  0  0
  7  8  1  0  0  0  0
  7 15  2  0  0  0  0
  8  9  2  0  0  0  0
  9 10  1  0  0  0  0
  9 14  1  0  0  0  0
 10 11  2  0  0  0  0
 11 12  1  0  0  0  0
 11 24  1  0  0  0  0
 12 13  2  0  0  0  0
 12 25  1  0  0  0  0
 13 14  1  0  0  0  0
 13 26  1  0  0  0  0
 14 15  1  0  0  0  0
 15 16  1  0  0  0  0
 17 18  1  0  0  0  0
 17 27  1  0  0  0  0
 18 28  1  0  0  0  0
M  END
>  <Energy>
57.3599

$$$$

 OpenBabel04232614443D

 41 44  0  0  0  0  0  0  0  0999 V2000
    1.1147    0.0551    0.1787 N   0  0  0  0  0  0  0  0  0  0  0  0
    2.4755   -0.0149    0.0157 C   0  0  0  0  0  0  0  0  0  0  0  0
    3.1825   -1.1547   -0.1587 C   0  0  0  0  0  0  0  0  0  0  0  0
    2.6595   -2.4617   -0.2714 C   0  0  0  0  0  0  0  0  0  0  0  0
    1.4957   -2.7710   -0.8195 N   0  0  0  0  0  0  0  0  0  0  0  0
    1.3000   -4.1409   -0.8293 C   0  0  0  0  0  0  0  0  0  0  0  0
    0.1988   -4.8136   -1.3972 C   0  0  0  0  0  0  0  0  0  0  0  0
    0.1258   -6.2087   -1.3304 C   0  0  0  0  0  0  0  0  0  0  0  0
    1.1306   -6.9364   -0.7014 C   0  0  0  0  0  0  0  0  0  0  0  0
    2.2346   -6.2914   -0.1331 C   0  0  0  0  0  0  0  0  0  0  0  0
    2.3012   -4.8902   -0.2157 C   0  0  0  0  0  0  0  0  0  0  0  0
    3.5204   -3.8242    0.3563 S   0  0  0  0  0  0  0  0  0  0  0  0
    4.5912   -0.7288   -0.3292 C   0  0  0  0  0  0  0  0  0  0  0  0
    5.5475   -1.4762   -0.4839 O   0  0  0  0  0  0  0  0  0  0  0  0
    4.6657    0.7827   -0.3200 C   0  0  0  0  0  0  0  0  0  0  0  0
    3.2699    1.1261   -0.0250 N   0  0  0  0  0  0  0  0  0  0  0  0
    2.9030    2.4754    0.4075 C   0  0  0  0  0  0  0  0  0  0  0  0
    3.2438    3.5035   -0.6791 C   0  0  0  0  0  0  0  0  0  0  0  0
    2.8685    4.9176   -0.2414 C   0  0  0  0  0  0  0  0  0  0  0  0
    3.5177    5.2835    1.0905 C   0  0  0  0  0  0  0  0  0  0  0  0
    3.1947    4.2611    2.1777 C   0  0  0  0  0  0  0  0  0  0  0  0
    3.5630    2.8421    1.7448 C   0  0  0  0  0  0  0  0  0  0  0  0
    0.6553   -0.8061   -0.1358 H   0  0  0  0  0  0  0  0  0  0  0  0
    0.7289    0.8611   -0.2965 H   0  0  0  0  0  0  0  0  0  0  0  0
   -0.5816   -4.2420   -1.8890 H   0  0  0  0  0  0  0  0  0  0  0  0
   -0.7227   -6.7243   -1.7742 H   0  0  0  0  0  0  0  0  0  0  0  0
    1.0607   -8.0212   -0.6527 H   0  0  0  0  0  0  0  0  0  0  0  0
    3.0214   -6.8608    0.3523 H   0  0  0  0  0  0  0  0  0  0  0  0
    4.9533    1.1371   -1.3133 H   0  0  0  0  0  0  0  0  0  0  0  0
    5.3631    1.1131    0.4519 H   0  0  0  0  0  0  0  0  0  0  0  0
    1.8174    2.5237    0.5629 H   0  0  0  0  0  0  0  0  0  0  0  0
    2.7160    3.2545   -1.6082 H   0  0  0  0  0  0  0  0  0  0  0  0
    4.3160    3.4763   -0.9109 H   0  0  0  0  0  0  0  0  0  0  0  0
    1.7780    4.9939   -0.1491 H   0  0  0  0  0  0  0  0  0  0  0  0
    3.1747    5.6348   -1.0110 H   0  0  0  0  0  0  0  0  0  0  0  0
    3.1774    6.2762    1.4058 H   0  0  0  0  0  0  0  0  0  0  0  0
    4.6051    5.3452    0.9600 H   0  0  0  0  0  0  0  0  0  0  0  0
    2.1248    4.3044    2.4146 H   0  0  0  0  0  0  0  0  0  0  0  0
    3.7357    4.5178    3.0954 H   0  0  0  0  0  0  0  0  0  0  0  0
    3.2617    2.1301    2.5223 H   0  0  0  0  0  0  0  0  0  0  0  0
    4.6552    2.7794    1.6700 H   0  0  0  0  0  0  0  0  0  0  0  0
  1  2  1  0  0  0  0
  1 23  1  0  0  0  0
  1 24  1  0  0  0  0
  2  3  2  0  0  0  0
  2 16  1  0  0  0  0
  3  4  1  0  0  0  0
  3 13  1  0  0  0  0
  4  5  2  0  0  0  0
  4 12  1  0  0  0  0
  5  6  1  0  0  0  0
  6  7  1  0  0  0  0
  6 11  2  0  0  0  0
  7  8  2  0  0  0  0
  7 25  1  0  0  0  0
  8  9  1  0  0  0  0
  8 26  1  0  0  0  0
  9 10  2  0  0  0  0
  9 27  1  0  0  0  0
 10 11  1  0  0  0  0
 10 28  1  0  0  0  0
 11 12  1  0  0  0  0
 13 14  2  0  0  0  0
 13 15  1  0  0  0  0
 15 16  1  0  0  0  0
 15 29  1  0  0  0  0
 15 30  1  0  0  0  0
 16 17  1  0  0  0  0
 17 18  1  0  0  0  0
 17 22  1  0  0  0  0
 17 31  1  0  0  0  0
 18 19  1  0  0  0  0
 18 32  1  0  0  0  0
 18 33  1  0  0  0  0
 19 20  1  0  0  0  0
 19 34  1  0  0  0  0
 19 35  1  0  0  0  0
 20 21  1  0  0  0  0
 20 36  1  0  0  0  0
 20 37  1  0  0  0  0
 21 22  1  0  0  0  0
 21 38  1  0  0  0  0
 21 39  1  0  0  0  0
 22 40  1  0  0  0  0
 22 41  1  0  0  0  0
M  END
>  <Energy>
27.8498

$$$$

 OpenBabel04232614443D

 37 39  0  0  1  0  0  0  0  0999 V2000
    3.0759   -1.4161    0.1521 C   0  0  0  0  0  0  0  0  0  0  0  0
    2.4910   -0.0321    0.0081 C   0  0  0  0  0  0  0  0  0  0  0  0
    1.3603    0.2354    0.4101 O   0  0  0  0  0  0  0  0  0  0  0  0
    3.3145    0.8880   -0.5932 N   0  0  0  0  0  0  0  0  0  0  0  0
    4.4888    0.5630   -1.1993 N   0  0  0  0  0  0  0  0  0  0  0  0
    4.8494    1.6635   -1.7804 C   0  0  0  0  0  0  0  0  0  0  0  0
    6.0770    1.8552   -2.5660 C   0  0  0  0  0  0  0  0  0  0  0  0
    6.8698    0.7348   -2.8429 C   0  0  0  0  0  0  0  0  0  0  0  0
    8.0715    0.8772   -3.5372 C   0  0  0  0  0  0  0  0  0  0  0  0
    8.4954    2.1401   -3.9622 C   0  0  0  0  0  0  0  0  0  0  0  0
    9.8070    2.3067   -4.6722 C   0  0  0  0  0  0  0  0  0  0  0  0
    7.6915    3.2576   -3.6963 C   0  0  0  0  0  0  0  0  0  0  0  0
    6.4848    3.1186   -3.0029 C   0  0  0  0  0  0  0  0  0  0  0  0
    4.0351    2.7442   -1.6567 O   0  0  0  0  0  0  0  0  0  0  0  0
    2.9679    2.2716   -0.8267 C   0  0  3  0  0  0  0  0  0  0  0  0
    2.9080    3.1063    0.4385 C   0  0  0  0  0  0  0  0  0  0  0  0
    1.7528    3.8446    0.7439 C   0  0  0  0  0  0  0  0  0  0  0  0
    1.6852    4.6116    1.9113 C   0  0  0  0  0  0  0  0  0  0  0  0
    2.7707    4.6452    2.7832 C   0  0  0  0  0  0  0  0  0  0  0  0
    2.6866    5.5888    4.2195 Cl  0  0  0  0  0  0  0  0  0  0  0  0
    3.9241    3.9190    2.4997 C   0  0  0  0  0  0  0  0  0  0  0  0
    3.9929    3.1546    1.3323 C   0  0  0  0  0  0  0  0  0  0  0  0
    2.3424   -2.0769    0.6202 H   0  0  0  0  0  0  0  0  0  0  0  0
    3.9649   -1.3769    0.7877 H   0  0  0  0  0  0  0  0  0  0  0  0
    3.3337   -1.8237   -0.8289 H   0  0  0  0  0  0  0  0  0  0  0  0
    6.5625   -0.2552   -2.5122 H   0  0  0  0  0  0  0  0  0  0  0  0
    8.6769   -0.0055   -3.7331 H   0  0  0  0  0  0  0  0  0  0  0  0
   10.2921    1.3408   -4.8491 H   0  0  0  0  0  0  0  0  0  0  0  0
   10.4853    2.9167   -4.0670 H   0  0  0  0  0  0  0  0  0  0  0  0
    9.6554    2.7877   -5.6433 H   0  0  0  0  0  0  0  0  0  0  0  0
    8.0093    4.2471   -4.0195 H   0  0  0  0  0  0  0  0  0  0  0  0
    5.8857    4.0017   -2.7966 H   0  0  0  0  0  0  0  0  0  0  0  0
    2.0270    2.3178   -1.3871 H   0  0  0  0  0  0  0  0  0  0  0  0
    0.8888    3.8185    0.0822 H   0  0  0  0  0  0  0  0  0  0  0  0
    0.7816    5.1719    2.1368 H   0  0  0  0  0  0  0  0  0  0  0  0
    4.7697    3.9384    3.1819 H   0  0  0  0  0  0  0  0  0  0  0  0
    4.8983    2.5857    1.1278 H   0  0  0  0  0  0  0  0  0  0  0  0
  1  2  1  0  0  0  0
  1 23  1  0  0  0  0
  1 24  1  0  0  0  0
  1 25  1  0  0  0  0
  2  3  2  0  0  0  0
  2  4  1  0  0  0  0
  4  5  1  0  0  0  0
  4 15  1  0  0  0  0
  5  6  2  0  0  0  0
  6  7  1  0  0  0  0
  6 14  1  0  0  0  0
  7  8  1  0  0  0  0
  7 13  2  0  0  0  0
  8  9  2  0  0  0  0
  8 26  1  0  0  0  0
  9 10  1  0  0  0  0
  9 27  1  0  0  0  0
 10 11  1  0  0  0  0
 10 12  2  0  0  0  0
 11 28  1  0  0  0  0
 11 29  1  0  0  0  0
 11 30  1  0  0  0  0
 12 13  1  0  0  0  0
 12 31  1  0  0  0  0
 13 32  1  0  0  0  0
 14 15  1  0  0  0  0
 15 16  1  0  0  0  0
 15 33  1  0  0  0  0
 16 17  1  0  0  0  0
 16 22  2  0  0  0  0
 17 18  2  0  0  0  0
 17 34  1  0  0  0  0
 18 19  1  0  0  0  0
 18 35  1  0  0  0  0
 19 20  1  0  0  0  0
 19 21  2  0  0  0  0
 21 22  1  0  0  0  0
 21 36  1  0  0  0  0
 22 37  1  0  0  0  0
M  END
>  <Energy>
72.838

$$$$

 OpenBabel04232614443D

 49 51  0  0  1  0  0  0  0  0999 V2000
    1.4459   -0.7374   -0.3608 O   0  0  0  0  0  0  0  0  0  0  0  0
    2.4165   -0.1107    0.0600 C   0  0  0  0  0  0  0  0  0  0  0  0
    2.8874    1.0397   -0.7673 C   0  0  0  0  0  0  0  0  0  0  0  0
    1.9325    1.8628   -1.3761 C   0  0  0  0  0  0  0  0  0  0  0  0
    2.3358    2.9582   -2.1455 C   0  0  0  0  0  0  0  0  0  0  0  0
    3.6926    3.2399   -2.3031 C   0  0  0  0  0  0  0  0  0  0  0  0
    4.6467    2.3953   -1.7430 C   0  0  0  0  0  0  0  0  0  0  0  0
    4.2441    1.2767   -1.0150 C   0  0  0  0  0  0  0  0  0  0  0  0
    3.0562   -0.4377    1.2580 N   0  0  0  0  0  0  0  0  0  0  0  0
    4.1649    0.2635    1.9076 C   0  0  0  0  0  0  0  0  0  0  0  0
    5.4056   -0.6306    1.8836 C   0  0  0  0  0  0  0  0  0  0  0  0
    5.1132   -1.9652    2.5759 C   0  0  0  0  0  0  0  0  0  0  0  0
    3.8665   -2.6423    1.9716 C   0  0  3  0  0  0  0  0  0  0  0  0
    3.4563   -3.8744    2.7707 C   0  0  0  0  0  0  0  0  0  0  0  0
    3.7189   -3.9495    3.9737 O   0  0  0  0  0  0  0  0  0  0  0  0
    2.6978   -4.8494    2.1242 N   0  0  0  0  0  0  0  0  0  0  0  0
    2.0621   -5.8721    2.9567 C   0  0  0  0  0  0  0  0  0  0  0  0
    2.9457   -7.1042    3.1173 C   0  0  0  0  0  0  0  0  0  0  0  0
    2.9233   -8.0368    1.9095 C   0  0  0  0  0  0  0  0  0  0  0  0
    3.3230   -7.3905    0.5843 C   0  0  0  0  0  0  0  0  0  0  0  0
    2.3170   -6.3445    0.1013 C   0  0  0  0  0  0  0  0  0  0  0  0
    2.5749   -4.9508    0.6702 C   0  0  0  0  0  0  0  0  0  0  0  0
    2.6773   -1.6754    1.9457 C   0  0  0  0  0  0  0  0  0  0  0  0
    0.8712    1.6506   -1.2581 H   0  0  0  0  0  0  0  0  0  0  0  0
    1.5920    3.5933   -2.6203 H   0  0  0  0  0  0  0  0  0  0  0  0
    4.0076    4.1068   -2.8784 H   0  0  0  0  0  0  0  0  0  0  0  0
    5.7058    2.5996   -1.8780 H   0  0  0  0  0  0  0  0  0  0  0  0
    5.0022    0.5995   -0.6436 H   0  0  0  0  0  0  0  0  0  0  0  0
    3.8684    0.4603    2.9474 H   0  0  0  0  0  0  0  0  0  0  0  0
    4.3600    1.2392    1.4640 H   0  0  0  0  0  0  0  0  0  0  0  0
    6.2475   -0.1292    2.3726 H   0  0  0  0  0  0  0  0  0  0  0  0
    5.7070   -0.8365    0.8507 H   0  0  0  0  0  0  0  0  0  0  0  0
    4.9822   -1.7881    3.6497 H   0  0  0  0  0  0  0  0  0  0  0  0
    5.9786   -2.6316    2.4704 H   0  0  0  0  0  0  0  0  0  0  0  0
    4.1352   -2.9030    0.9471 H   0  0  0  0  0  0  0  0  0  0  0  0
    1.0774   -6.1173    2.5447 H   0  0  0  0  0  0  0  0  0  0  0  0
    1.8741   -5.4488    3.9510 H   0  0  0  0  0  0  0  0  0  0  0  0
    2.5945   -7.6733    3.9865 H   0  0  0  0  0  0  0  0  0  0  0  0
    3.9797   -6.8064    3.3327 H   0  0  0  0  0  0  0  0  0  0  0  0
    1.9220   -8.4750    1.8106 H   0  0  0  0  0  0  0  0  0  0  0  0
    3.6054   -8.8727    2.1090 H   0  0  0  0  0  0  0  0  0  0  0  0
    3.3765   -8.1845   -0.1689 H   0  0  0  0  0  0  0  0  0  0  0  0
    4.3292   -6.9591    0.6569 H   0  0  0  0  0  0  0  0  0  0  0  0
    1.2914   -6.6678    0.3124 H   0  0  0  0  0  0  0  0  0  0  0  0
    2.3921   -6.2694   -0.9911 H   0  0  0  0  0  0  0  0  0  0  0  0
    1.7676   -4.2759    0.3648 H   0  0  0  0  0  0  0  0  0  0  0  0
    3.4971   -4.5872    0.2096 H   0  0  0  0  0  0  0  0  0  0  0  0
    2.3702   -1.4044    2.9667 H   0  0  0  0  0  0  0  0  0  0  0  0
    1.8056   -2.1378    1.4752 H   0  0  0  0  0  0  0  0  0  0  0  0
  1  2  2  0  0  0  0
  2  3  1  0  0  0  0
  2  9  1  0  0  0  0
  3  4  1  0  0  0  0
  3  8  2  0  0  0  0
  4  5  2  0  0  0  0
  4 24  1  0  0  0  0
  5  6  1  0  0  0  0
  5 25  1  0  0  0  0
  6  7  2  0  0  0  0
  6 26  1  0  0  0  0
  7  8  1  0  0  0  0
  7 27  1  0  0  0  0
  8 28  1  0  0  0  0
  9 10  1  0  0  0  0
  9 23  1  0  0  0  0
 10 11  1  0  0  0  0
 10 29  1  0  0  0  0
 10 30  1  0  0  0  0
 11 12  1  0  0  0  0
 11 31  1  0  0  0  0
 11 32  1  0  0  0  0
 12 13  1  0  0  0  0
 12 33  1  0  0  0  0
 12 34  1  0  0  0  0
 13 14  1  0  0  0  0
 13 23  1  0  0  0  0
 13 35  1  0  0  0  0
 14 15  2  0  0  0  0
 14 16  1  0  0  0  0
 16 17  1  0  0  0  0
 16 22  1  0  0  0  0
 17 18  1  0  0  0  0
 17 36  1  0  0  0  0
 17 37  1  0  0  0  0
 18 19  1  0  0  0  0
 18 38  1  0  0  0  0
 18 39  1  0  0  0  0
 19 20  1  0  0  0  0
 19 40  1  0  0  0  0
 19 41  1  0  0  0  0
 20 21  1  0  0  0  0
 20 42  1  0  0  0  0
 20 43  1  0  0  0  0
 21 22  1  0  0  0  0
 21 44  1  0  0  0  0
 21 45  1  0  0  0  0
 22 46  1  0  0  0  0
 22 47  1  0  0  0  0
 23 48  1  0  0  0  0
 23 49  1  0  0  0  0
M  END
>  <Energy>
23.4021

$$$$

 OpenBabel04232614443D

 30 32  0  0  0  0  0  0  0  0999 V2000
    0.9258   -0.0958    0.0789 O   0  0  0  0  0  0  0  0  0  0  0  0
    2.1544   -0.0854    0.0759 C   0  0  0  0  0  0  0  0  0  0  0  0
    2.8079   -0.9035    0.9613 N   0  0  0  0  0  0  0  0  0  0  0  0
    4.1547   -0.9122    1.1783 C   0  0  0  0  0  0  0  0  0  0  0  0
    5.0363   -0.0953    0.6620 N   0  0  0  0  0  0  0  0  0  0  0  0
    6.2933   -0.4273    1.1280 C   0  0  0  0  0  0  0  0  0  0  0  0
    7.4876    0.2545    0.8241 C   0  0  0  0  0  0  0  0  0  0  0  0
    8.7018   -0.2216    1.3252 C   0  0  0  0  0  0  0  0  0  0  0  0
    8.7365   -1.3648    2.1173 C   0  0  0  0  0  0  0  0  0  0  0  0
    7.5611   -2.0460    2.4539 C   0  0  0  0  0  0  0  0  0  0  0  0
    6.3444   -1.5512    1.9578 C   0  0  0  0  0  0  0  0  0  0  0  0
    4.7349   -2.1261    2.2147 S   0  0  0  0  0  0  0  0  0  0  0  0
    2.9449    0.6307   -0.7832 N   0  0  0  0  0  0  0  0  0  0  0  0
    2.5700    1.5565   -1.7776 C   0  0  0  0  0  0  0  0  0  0  0  0
    1.2902    2.1101   -1.8519 C   0  0  0  0  0  0  0  0  0  0  0  0
    0.9850    3.0586   -2.8336 C   0  0  0  0  0  0  0  0  0  0  0  0
    1.9490    3.4521   -3.7603 C   0  0  0  0  0  0  0  0  0  0  0  0
    3.2270    2.9003   -3.7062 C   0  0  0  0  0  0  0  0  0  0  0  0
    3.5377    1.9652   -2.7161 C   0  0  0  0  0  0  0  0  0  0  0  0
    5.1389    1.3029   -2.7033 Cl  0  0  0  0  0  0  0  0  0  0  0  0
    2.2255   -1.5182    1.5095 H   0  0  0  0  0  0  0  0  0  0  0  0
    7.4545    1.1420    0.1992 H   0  0  0  0  0  0  0  0  0  0  0  0
    9.6236    0.3035    1.0845 H   0  0  0  0  0  0  0  0  0  0  0  0
    9.6927   -1.7337    2.4848 H   0  0  0  0  0  0  0  0  0  0  0  0
    7.5927   -2.9334    3.0787 H   0  0  0  0  0  0  0  0  0  0  0  0
    3.9416    0.4262   -0.7377 H   0  0  0  0  0  0  0  0  0  0  0  0
    0.5163    1.8424   -1.1383 H   0  0  0  0  0  0  0  0  0  0  0  0
   -0.0110    3.4941   -2.8672 H   0  0  0  0  0  0  0  0  0  0  0  0
    1.7047    4.1877   -4.5221 H   0  0  0  0  0  0  0  0  0  0  0  0
    3.9750    3.2002   -4.4353 H   0  0  0  0  0  0  0  0  0  0  0  0
  1  2  2  0  0  0  0
  2  3  1  0  0  0  0
  2 13  1  0  0  0  0
  3  4  1  0  0  0  0
  3 21  1  0  0  0  0
  4  5  2  0  0  0  0
  4 12  1  0  0  0  0
  5  6  1  0  0  0  0
  6  7  1  0  0  0  0
  6 11  2  0  0  0  0
  7  8  2  0  0  0  0
  7 22  1  0  0  0  0
  8  9  1  0  0  0  0
  8 23  1  0  0  0  0
  9 10  2  0  0  0  0
  9 24  1  0  0  0  0
 10 11  1  0  0  0  0
 10 25  1  0  0  0  0
 11 12  1  0  0  0  0
 13 14  1  0  0  0  0
 13 26  1  0  0  0  0
 14 15  1  0  0  0  0
 14 19  2  0  0  0  0
 15 16  2  0  0  0  0
 15 27  1  0  0  0  0
 16 17  1  0  0  0  0
 16 28  1  0  0  0  0
 17 18  2  0  0  0  0
 17 29  1  0  0  0  0
 18 19  1  0  0  0  0
 18 30  1  0  0  0  0
 19 20  1  0  0  0  0
M  END
>  <Energy>
-44.9554

$$$$

 OpenBabel04232614443D

 44 47  0  0  1  0  0  0  0  0999 V2000
    0.5199   -0.4333   -0.3929 C   0  0  0  0  0  0  0  0  0  0  0  0
    1.9921   -0.2439    0.0184 C   0  0  3  0  0  0  0  0  0  0  0  0
    2.5198    1.0977   -0.5163 C   0  0  0  0  0  0  0  0  0  0  0  0
    2.6370    1.1010   -2.0358 C   0  0  0  0  0  0  0  0  0  0  0  0
    3.5205   -0.0561   -2.4902 C   0  0  0  0  0  0  0  0  0  0  0  0
    3.0481   -1.4043   -1.9386 C   0  0  0  0  0  0  0  0  0  0  0  0
    2.8309   -1.3602   -0.4806 N   0  0  0  0  0  0  0  0  0  0  0  0
    3.6259   -2.1285    0.3915 C   0  0  0  0  0  0  0  0  0  0  0  0
    4.9620   -2.4387    0.0560 C   0  0  0  0  0  0  0  0  0  0  0  0
    5.7656   -3.2094    0.9007 C   0  0  0  0  0  0  0  0  0  0  0  0
    7.1619   -3.6098    0.5690 C   0  0  0  0  0  0  0  0  0  0  0  0
    7.9052   -4.4517    1.4070 C   0  0  0  0  0  0  0  0  0  0  0  0
    9.2099   -4.8050    1.0655 C   0  0  0  0  0  0  0  0  0  0  0  0
    9.7531   -4.3129   -0.1105 C   0  0  0  0  0  0  0  0  0  0  0  0
    8.9632   -3.4928   -0.8968 C   0  0  0  0  0  0  0  0  0  0  0  0
    7.6931   -3.1332   -0.5911 N   0  0  0  0  0  0  0  0  0  0  0  0
    5.3084   -3.6527    2.0942 N   0  0  0  0  0  0  0  0  0  0  0  0
    4.0497   -3.3818    2.4488 C   0  0  0  0  0  0  0  0  0  0  0  0
    3.6396   -3.8742    3.6853 C   0  0  0  0  0  0  0  0  0  0  0  0
    2.3421   -3.6928    4.1629 C   0  0  0  0  0  0  0  0  0  0  0  0
    1.4227   -3.0430    3.3710 C   0  0  0  0  0  0  0  0  0  0  0  0
    1.8180   -2.5620    2.1236 C   0  0  0  0  0  0  0  0  0  0  0  0
    3.1490   -2.6599    1.6381 C   0  0  0  0  0  0  0  0  0  0  0  0
   -0.0907    0.3898   -0.0067 H   0  0  0  0  0  0  0  0  0  0  0  0
    0.0906   -1.3648   -0.0191 H   0  0  0  0  0  0  0  0  0  0  0  0
    0.3858   -0.4667   -1.4774 H   0  0  0  0  0  0  0  0  0  0  0  0
    2.0415   -0.1650    1.1100 H   0  0  0  0  0  0  0  0  0  0  0  0
    3.5075    1.2987   -0.0822 H   0  0  0  0  0  0  0  0  0  0  0  0
    1.8619    1.9145   -0.1947 H   0  0  0  0  0  0  0  0  0  0  0  0
    3.0570    2.0545   -2.3741 H   0  0  0  0  0  0  0  0  0  0  0  0
    1.6459    1.0217   -2.4980 H   0  0  0  0  0  0  0  0  0  0  0  0
    4.5498    0.1362   -2.1653 H   0  0  0  0  0  0  0  0  0  0  0  0
    3.5311   -0.0921   -3.5857 H   0  0  0  0  0  0  0  0  0  0  0  0
    3.7484   -2.1894   -2.2437 H   0  0  0  0  0  0  0  0  0  0  0  0
    2.1001   -1.6758   -2.4178 H   0  0  0  0  0  0  0  0  0  0  0  0
    5.4044   -2.0673   -0.8628 H   0  0  0  0  0  0  0  0  0  0  0  0
    7.4723   -4.8369    2.3266 H   0  0  0  0  0  0  0  0  0  0  0  0
    9.7888   -5.4552    1.7144 H   0  0  0  0  0  0  0  0  0  0  0  0
   10.7661   -4.5630   -0.4067 H   0  0  0  0  0  0  0  0  0  0  0  0
    9.3446   -3.0853   -1.8294 H   0  0  0  0  0  0  0  0  0  0  0  0
    4.3538   -4.4218    4.2941 H   0  0  0  0  0  0  0  0  0  0  0  0
    2.0585   -4.0804    5.1377 H   0  0  0  0  0  0  0  0  0  0  0  0
    0.3961   -2.9079    3.7020 H   0  0  0  0  0  0  0  0  0  0  0  0
    1.0500   -2.1140    1.5215 H   0  0  0  0  0  0  0  0  0  0  0  0
  1  2  1  0  0  0  0
  1 24  1  0  0  0  0
  1 25  1  0  0  0  0
  1 26  1  0  0  0  0
  2  3  1  0  0  0  0
  2  7  1  0  0  0  0
  2 27  1  0  0  0  0
  3  4  1  0  0  0  0
  3 28  1  0  0  0  0
  3 29  1  0  0  0  0
  4  5  1  0  0  0  0
  4 30  1  0  0  0  0
  4 31  1  0  0  0  0
  5  6  1  0  0  0  0
  5 32  1  0  0  0  0
  5 33  1  0  0  0  0
  6  7  1  0  0  0  0
  6 34  1  0  0  0  0
  6 35  1  0  0  0  0
  7  8  1  0  0  0  0
  8  9  1  0  0  0  0
  8 23  2  0  0  0  0
  9 10  2  0  0  0  0
  9 36  1  0  0  0  0
 10 11  1  0  0  0  0
 10 17  1  0  0  0  0
 11 12  1  0  0  0  0
 11 16  2  0  0  0  0
 12 13  2  0  0  0  0
 12 37  1  0  0  0  0
 13 14  1  0  0  0  0
 13 38  1  0  0  0  0
 14 15  2  0  0  0  0
 14 39  1  0  0  0  0
 15 16  1  0  0  0  0
 15 40  1  0  0  0  0
 17 18  2  0  0  0  0
 18 19  1  0  0  0  0
 18 23  1  0  0  0  0
 19 20  2  0  0  0  0
 19 41  1  0  0  0  0
 20 21  1  0  0  0  0
 20 42  1  0  0  0  0
 21 22  2  0  0  0  0
 21 43  1  0  0  0  0
 22 23  1  0  0  0  0
 22 44  1  0  0  0  0
M  END
>  <Energy>
93.9575

$$$$

 OpenBabel04232614443D

 34 36  0  0  0  0  0  0  0  0999 V2000
    1.1185    0.7587    0.0152 C   0  0  0  0  0  0  0  0  0  0  0  0
    2.5424    0.8556    0.0140 O   0  0  0  0  0  0  0  0  0  0  0  0
    3.1381    0.4446    1.1690 C   0  0  0  0  0  0  0  0  0  0  0  0
    2.5261    0.0361    2.1493 O   0  0  0  0  0  0  0  0  0  0  0  0
    4.5964    0.4988    1.1138 C   0  0  0  0  0  0  0  0  0  0  0  0
    5.4128    0.0248    2.1248 C   0  0  0  0  0  0  0  0  0  0  0  0
    6.7404    0.1130    1.7502 N   0  0  0  0  0  0  0  0  0  0  0  0
    7.8361   -0.4479    2.4621 C   0  0  0  0  0  0  0  0  0  0  0  0
    8.9668   -0.0704    2.1730 O   0  0  0  0  0  0  0  0  0  0  0  0
    7.6855   -1.5435    3.4578 C   0  0  0  0  0  0  0  0  0  0  0  0
    6.8498   -2.6252    3.1227 C   0  0  0  0  0  0  0  0  0  0  0  0
    6.7028   -3.7060    3.9913 C   0  0  0  0  0  0  0  0  0  0  0  0
    7.4161   -3.7343    5.1868 C   0  0  0  0  0  0  0  0  0  0  0  0
    8.2684   -2.6793    5.5149 C   0  0  0  0  0  0  0  0  0  0  0  0
    8.4056   -1.5795    4.6572 C   0  0  0  0  0  0  0  0  0  0  0  0
    9.4430   -0.3011    5.1768 Cl  0  0  0  0  0  0  0  0  0  0  0  0
    6.7903    0.7918    0.5318 C   0  0  0  0  0  0  0  0  0  0  0  0
    7.8897    1.1833   -0.2606 C   0  0  0  0  0  0  0  0  0  0  0  0
    7.6518    1.7848   -1.4971 C   0  0  0  0  0  0  0  0  0  0  0  0
    6.3565    1.9951   -1.9458 C   0  0  0  0  0  0  0  0  0  0  0  0
    5.2663    1.6114   -1.1599 C   0  0  0  0  0  0  0  0  0  0  0  0
    5.4713    1.0000    0.0991 C   0  0  0  0  0  0  0  0  0  0  0  0
    0.7662    0.9580   -1.0013 H   0  0  0  0  0  0  0  0  0  0  0  0
    0.6919    1.5104    0.6854 H   0  0  0  0  0  0  0  0  0  0  0  0
    0.7909   -0.2467    0.2981 H   0  0  0  0  0  0  0  0  0  0  0  0
    5.1317   -0.4015    3.0803 H   0  0  0  0  0  0  0  0  0  0  0  0
    6.3131   -2.6471    2.1760 H   0  0  0  0  0  0  0  0  0  0  0  0
    6.0431   -4.5291    3.7287 H   0  0  0  0  0  0  0  0  0  0  0  0
    7.3115   -4.5818    5.8608 H   0  0  0  0  0  0  0  0  0  0  0  0
    8.8272   -2.7206    6.4475 H   0  0  0  0  0  0  0  0  0  0  0  0
    8.9122    1.0153    0.0668 H   0  0  0  0  0  0  0  0  0  0  0  0
    8.4952    2.0837   -2.1155 H   0  0  0  0  0  0  0  0  0  0  0  0
    6.1865    2.4593   -2.9137 H   0  0  0  0  0  0  0  0  0  0  0  0
    4.2615    1.7866   -1.5347 H   0  0  0  0  0  0  0  0  0  0  0  0
  1  2  1  0  0  0  0
  1 23  1  0  0  0  0
  1 24  1  0  0  0  0
  1 25  1  0  0  0  0
  2  3  1  0  0  0  0
  3  4  2  0  0  0  0
  3  5  1  0  0  0  0
  5  6  2  0  0  0  0
  5 22  1  0  0  0  0
  6  7  1  0  0  0  0
  6 26  1  0  0  0  0
  7  8  1  0  0  0  0
  7 17  1  0  0  0  0
  8  9  2  0  0  0  0
  8 10  1  0  0  0  0
 10 11  1  0  0  0  0
 10 15  2  0  0  0  0
 11 12  2  0  0  0  0
 11 27  1  0  0  0  0
 12 13  1  0  0  0  0
 12 28  1  0  0  0  0
 13 14  2  0  0  0  0
 13 29  1  0  0  0  0
 14 15  1  0  0  0  0
 14 30  1  0  0  0  0
 15 16  1  0  0  0  0
 17 18  1  0  0  0  0
 17 22  2  0  0  0  0
 18 19  2  0  0  0  0
 18 31  1  0  0  0  0
 19 20  1  0  0  0  0
 19 32  1  0  0  0  0
 20 21  2  0  0  0  0
 20 33  1  0  0  0  0
 21 22  1  0  0  0  0
 21 34  1  0  0  0  0
M  END
>  <Energy>
87.8422

$$$$

 OpenBabel04232614443D

 32 34  0  0  0  0  0  0  0  0999 V2000
    0.9853    0.5641   -0.3685 O   0  0  0  0  0  0  0  0  0  0  0  0
    2.0724    0.1616    0.0355 C   0  0  0  0  0  0  0  0  0  0  0  0
    2.5633    0.3254    1.3289 N   0  0  0  0  0  0  0  0  0  0  0  0
    1.9475    0.8662    2.4450 C   0  0  0  0  0  0  0  0  0  0  0  0
    0.4228    1.5521    2.5359 S   0  0  0  0  0  0  0  0  0  0  0  0
    2.6407    0.8109    3.6248 N   0  0  0  0  0  0  0  0  0  0  0  0
    3.8671    0.2451    3.8188 C   0  0  0  0  0  0  0  0  0  0  0  0
    4.6682   -0.2553    2.9123 N   0  0  0  0  0  0  0  0  0  0  0  0
    5.7921   -0.7636    3.5513 C   0  0  0  0  0  0  0  0  0  0  0  0
    6.8931   -1.3793    2.9227 C   0  0  0  0  0  0  0  0  0  0  0  0
    7.9452   -1.8801    3.6978 C   0  0  0  0  0  0  0  0  0  0  0  0
    7.9140   -1.7746    5.0850 C   0  0  0  0  0  0  0  0  0  0  0  0
    6.8425   -1.1541    5.7330 C   0  0  0  0  0  0  0  0  0  0  0  0
    5.7949   -0.6497    4.9461 C   0  0  0  0  0  0  0  0  0  0  0  0
    4.3643    0.1730    5.4406 S   0  0  0  0  0  0  0  0  0  0  0  0
    2.9617   -0.5387   -0.9390 C   0  0  0  0  0  0  0  0  0  0  0  0
    2.7511   -0.2858   -2.3045 C   0  0  0  0  0  0  0  0  0  0  0  0
    3.5092   -0.9408   -3.2754 C   0  0  0  0  0  0  0  0  0  0  0  0
    4.4828   -1.8584   -2.8914 C   0  0  0  0  0  0  0  0  0  0  0  0
    4.6983   -2.1214   -1.5374 C   0  0  0  0  0  0  0  0  0  0  0  0
    3.9392   -1.4678   -0.5593 C   0  0  0  0  0  0  0  0  0  0  0  0
    3.5195    0.0291    1.4933 H   0  0  0  0  0  0  0  0  0  0  0  0
    2.1620    1.1663    4.4428 H   0  0  0  0  0  0  0  0  0  0  0  0
    6.9186   -1.4643    1.8404 H   0  0  0  0  0  0  0  0  0  0  0  0
    8.7917   -2.3582    3.2101 H   0  0  0  0  0  0  0  0  0  0  0  0
    8.7357   -2.1765    5.6746 H   0  0  0  0  0  0  0  0  0  0  0  0
    6.8219   -1.0692    6.8158 H   0  0  0  0  0  0  0  0  0  0  0  0
    1.9817    0.4184   -2.6165 H   0  0  0  0  0  0  0  0  0  0  0  0
    3.3279   -0.7415   -4.3290 H   0  0  0  0  0  0  0  0  0  0  0  0
    5.0642   -2.3789   -3.6480 H   0  0  0  0  0  0  0  0  0  0  0  0
    5.4482   -2.8521   -1.2454 H   0  0  0  0  0  0  0  0  0  0  0  0
    4.1048   -1.7299    0.4811 H   0  0  0  0  0  0  0  0  0  0  0  0
  1  2  2  0  0  0  0
  2  3  1  0  0  0  0
  2 16  1  0  0  0  0
  3  4  1  0  0  0  0
  3 22  1  0  0  0  0
  4  5  2  0  0  0  0
  4  6  1  0  0  0  0
  6  7  1  0  0  0  0
  6 23  1  0  0  0  0
  7  8  2  0  0  0  0
  7 15  1  0  0  0  0
  8  9  1  0  0  0  0
  9 10  1  0  0  0  0
  9 14  2  0  0  0  0
 10 11  2  0  0  0  0
 10 24  1  0  0  0  0
 11 12  1  0  0  0  0
 11 25  1  0  0  0  0
 12 13  2  0  0  0  0
 12 26  1  0  0  0  0
 13 14  1  0  0  0  0
 13 27  1  0  0  0  0
 14 15  1  0  0  0  0
 16 17  1  0  0  0  0
 16 21  2  0  0  0  0
 17 18  2  0  0  0  0
 17 28  1  0  0  0  0
 18 19  1  0  0  0  0
 18 29  1  0  0  0  0
 19 20  2  0  0  0  0
 19 30  1  0  0  0  0
 20 21  1  0  0  0  0
 20 31  1  0  0  0  0
 21 32  1  0  0  0  0
M  END
>  <Energy>
-31.6391

$$$$

 OpenBabel04232614443D

 36 39  0  0  0  0  0  0  0  0999 V2000
    0.1599    2.5728   -0.0706 C   0  0  0  0  0  0  0  0  0  0  0  0
    0.7082    1.1958    0.0228 C   0  0  0  0  0  0  0  0  0  0  0  0
    2.0434    0.8018    0.0499 C   0  0  0  0  0  0  0  0  0  0  0  0
    3.2891    1.5414   -0.0254 C   0  0  0  0  0  0  0  0  0  0  0  0
    3.4252    2.7611   -0.0333 O   0  0  0  0  0  0  0  0  0  0  0  0
    4.3526    0.6396   -0.0256 O   0  0  0  0  0  0  0  0  0  0  0  0
    5.2761    0.7588   -1.0875 C   0  0  0  0  0  0  0  0  0  0  0  0
    6.5993    0.4495   -0.7554 C   0  0  0  0  0  0  0  0  0  0  0  0
    7.5629    0.4138   -1.7542 C   0  0  0  0  0  0  0  0  0  0  0  0
    7.1965    0.6821   -3.0722 C   0  0  0  0  0  0  0  0  0  0  0  0
    5.8605    0.9766   -3.4034 C   0  0  0  0  0  0  0  0  0  0  0  0
    5.4803    1.2248   -4.7300 C   0  0  0  0  0  0  0  0  0  0  0  0
    4.1512    1.4856   -5.0380 C   0  0  0  0  0  0  0  0  0  0  0  0
    3.2378    1.4805   -4.0059 C   0  0  0  0  0  0  0  0  0  0  0  0
    3.5674    1.2405   -2.7203 N   0  0  0  0  0  0  0  0  0  0  0  0
    4.8633    1.0093   -2.4062 C   0  0  0  0  0  0  0  0  0  0  0  0
    2.1160   -0.5663    0.1119 O   0  0  0  0  0  0  0  0  0  0  0  0
    0.8541   -1.0518    0.1024 C   0  0  0  0  0  0  0  0  0  0  0  0
    0.5191   -2.4027    0.1229 C   0  0  0  0  0  0  0  0  0  0  0  0
   -0.8445   -2.7044    0.1145 C   0  0  0  0  0  0  0  0  0  0  0  0
   -1.8055   -1.6902    0.0871 C   0  0  0  0  0  0  0  0  0  0  0  0
   -1.4311   -0.3374    0.0581 C   0  0  0  0  0  0  0  0  0  0  0  0
   -0.0616   -0.0122    0.0642 C   0  0  0  0  0  0  0  0  0  0  0  0
    0.9420    3.3327   -0.1369 H   0  0  0  0  0  0  0  0  0  0  0  0
   -0.4533    2.7959    0.8085 H   0  0  0  0  0  0  0  0  0  0  0  0
   -0.4722    2.6681   -0.9602 H   0  0  0  0  0  0  0  0  0  0  0  0
    6.8646    0.2197    0.2731 H   0  0  0  0  0  0  0  0  0  0  0  0
    8.5923    0.1637   -1.5122 H   0  0  0  0  0  0  0  0  0  0  0  0
    7.9587    0.6423   -3.8481 H   0  0  0  0  0  0  0  0  0  0  0  0
    6.2162    1.2102   -5.5298 H   0  0  0  0  0  0  0  0  0  0  0  0
    3.8362    1.6819   -6.0562 H   0  0  0  0  0  0  0  0  0  0  0  0
    2.1842    1.6742   -4.1830 H   0  0  0  0  0  0  0  0  0  0  0  0
    1.2826   -3.1708    0.1392 H   0  0  0  0  0  0  0  0  0  0  0  0
   -1.1591   -3.7456    0.1294 H   0  0  0  0  0  0  0  0  0  0  0  0
   -2.8609   -1.9529    0.0842 H   0  0  0  0  0  0  0  0  0  0  0  0
   -2.1883    0.4400    0.0291 H   0  0  0  0  0  0  0  0  0  0  0  0
  1  2  1  0  0  0  0
  1 24  1  0  0  0  0
  1 25  1  0  0  0  0
  1 26  1  0  0  0  0
  2  3  2  0  0  0  0
  2 23  1  0  0  0  0
  3  4  1  0  0  0  0
  3 17  1  0  0  0  0
  4  5  2  0  0  0  0
  4  6  1  0  0  0  0
  6  7  1  0  0  0  0
  7  8  1  0  0  0  0
  7 16  2  0  0  0  0
  8  9  2  0  0  0  0
  8 27  1  0  0  0  0
  9 10  1  0  0  0  0
  9 28  1  0  0  0  0
 10 11  2  0  0  0  0
 10 29  1  0  0  0  0
 11 12  1  0  0  0  0
 11 16  1  0  0  0  0
 12 13  2  0  0  0  0
 12 30  1  0  0  0  0
 13 14  1  0  0  0  0
 13 31  1  0  0  0  0
 14 15  2  0  0  0  0
 14 32  1  0  0  0  0
 15 16  1  0  0  0  0
 17 18  1  0  0  0  0
 18 19  1  0  0  0  0
 18 23  2  0  0  0  0
 19 20  2  0  0  0  0
 19 33  1  0  0  0  0
 20 21  1  0  0  0  0
 20 34  1  0  0  0  0
 21 22  2  0  0  0  0
 21 35  1  0  0  0  0
 22 23  1  0  0  0  0
 22 36  1  0  0  0  0
M  END
>  <Energy>
98.2037

$$$$

 OpenBabel04232614443D

 34 36  0  0  0  0  0  0  0  0999 V2000
   -0.3223   -2.4274    1.3088 C   0  0  0  0  0  0  0  0  0  0  0  0
   -0.4286   -1.1957    0.5013 C   0  0  0  0  0  0  0  0  0  0  0  0
    0.2803   -0.7019   -0.5713 C   0  0  0  0  0  0  0  0  0  0  0  0
   -0.3388    0.5211   -0.9274 C   0  0  0  0  0  0  0  0  0  0  0  0
   -1.3927    0.7053   -0.0515 C   0  0  0  0  0  0  0  0  0  0  0  0
   -2.4495    1.7019    0.0556 C   0  0  0  0  0  0  0  0  0  0  0  0
   -3.3643    1.7067    1.1030 C   0  0  0  0  0  0  0  0  0  0  0  0
   -4.4779    2.5687    1.0816 C   0  0  0  0  0  0  0  0  0  0  0  0
   -5.4678    2.5053    2.2009 C   0  0  0  0  0  0  0  0  0  0  0  0
   -6.1420    3.6412    2.6889 C   0  0  0  0  0  0  0  0  0  0  0  0
   -7.0820    3.5571    3.7255 C   0  0  0  0  0  0  0  0  0  0  0  0
   -7.3305    2.3369    4.3391 C   0  0  0  0  0  0  0  0  0  0  0  0
   -8.4582    2.2373    5.6325 Cl  0  0  0  0  0  0  0  0  0  0  0  0
   -6.6602    1.1986    3.9124 C   0  0  0  0  0  0  0  0  0  0  0  0
   -5.7546    1.2824    2.8462 C   0  0  0  0  0  0  0  0  0  0  0  0
   -4.5833    3.4182   -0.0433 C   0  0  0  0  0  0  0  0  0  0  0  0
   -5.7084    4.2794   -0.2614 C   0  0  0  0  0  0  0  0  0  0  0  0
   -6.5887    5.0160   -0.4244 N   0  0  0  0  0  0  0  0  0  0  0  0
   -3.5686    3.4125   -1.0140 C   0  0  0  0  0  0  0  0  0  0  0  0
   -3.6081    4.2265   -2.1457 N   0  0  0  0  0  0  0  0  0  0  0  0
   -2.5254    2.5668   -0.9782 N   0  0  0  0  0  0  0  0  0  0  0  0
   -1.4364   -0.3401    0.8304 O   0  0  0  0  0  0  0  0  0  0  0  0
    0.4859   -3.0677    0.9428 H   0  0  0  0  0  0  0  0  0  0  0  0
   -1.2547   -2.9981    1.2614 H   0  0  0  0  0  0  0  0  0  0  0  0
   -0.1182   -2.1841    2.3565 H   0  0  0  0  0  0  0  0  0  0  0  0
    1.1253   -1.1761   -1.0517 H   0  0  0  0  0  0  0  0  0  0  0  0
   -0.0770    1.1816   -1.7415 H   0  0  0  0  0  0  0  0  0  0  0  0
   -3.2110    1.0128    1.9266 H   0  0  0  0  0  0  0  0  0  0  0  0
   -5.9547    4.6327    2.2819 H   0  0  0  0  0  0  0  0  0  0  0  0
   -7.6071    4.4530    4.0465 H   0  0  0  0  0  0  0  0  0  0  0  0
   -6.8368    0.2415    4.3950 H   0  0  0  0  0  0  0  0  0  0  0  0
   -5.2759    0.3573    2.5283 H   0  0  0  0  0  0  0  0  0  0  0  0
   -3.7893    5.2057   -1.9486 H   0  0  0  0  0  0  0  0  0  0  0  0
   -2.7444    4.0920   -2.6669 H   0  0  0  0  0  0  0  0  0  0  0  0
  1  2  1  0  0  0  0
  1 23  1  0  0  0  0
  1 24  1  0  0  0  0
  1 25  1  0  0  0  0
  2  3  2  0  0  0  0
  2 22  1  0  0  0  0
  3  4  1  0  0  0  0
  3 26  1  0  0  0  0
  4  5  2  0  0  0  0
  4 27  1  0  0  0  0
  5  6  1  0  0  0  0
  5 22  1  0  0  0  0
  6  7  1  0  0  0  0
  6 21  2  0  0  0  0
  7  8  2  0  0  0  0
  7 28  1  0  0  0  0
  8  9  1  0  0  0  0
  8 16  1  0  0  0  0
  9 10  1  0  0  0  0
  9 15  2  0  0  0  0
 10 11  2  0  0  0  0
 10 29  1  0  0  0  0
 11 12  1  0  0  0  0
 11 30  1  0  0  0  0
 12 13  1  0  0  0  0
 12 14  2  0  0  0  0
 14 15  1  0  0  0  0
 14 31  1  0  0  0  0
 15 32  1  0  0  0  0
 16 17  1  0  0  0  0
 16 19  2  0  0  0  0
 17 18  3  0  0  0  0
 19 20  1  0  0  0  0
 19 21  1  0  0  0  0
 20 33  1  0  0  0  0
 20 34  1  0  0  0  0
M  END
>  <Energy>
23.8032

$$$$

 OpenBabel04232614443D

 41 44  0  0  0  0  0  0  0  0999 V2000
    1.1794   -0.6690    0.3655 C   0  0  0  0  0  0  0  0  0  0  0  0
    2.5332   -0.2826    0.1656 O   0  0  0  0  0  0  0  0  0  0  0  0
    3.0004    0.7245    0.9851 C   0  0  0  0  0  0  0  0  0  0  0  0
    2.5367    0.8883    2.2973 C   0  0  0  0  0  0  0  0  0  0  0  0
    3.0081    1.9374    3.0721 C   0  0  0  0  0  0  0  0  0  0  0  0
    3.9804    2.7908    2.5596 C   0  0  0  0  0  0  0  0  0  0  0  0
    4.5464    2.5691    1.2815 C   0  0  0  0  0  0  0  0  0  0  0  0
    4.0084    1.5536    0.4523 C   0  0  0  0  0  0  0  0  0  0  0  0
    4.4115    1.3744   -0.8169 N   0  0  0  0  0  0  0  0  0  0  0  0
    5.3536    2.1679   -1.3621 C   0  0  0  0  0  0  0  0  0  0  0  0
    6.0055    3.1467   -0.6096 C   0  0  0  0  0  0  0  0  0  0  0  0
    7.0249    4.0840   -0.9387 C   0  0  0  0  0  0  0  0  0  0  0  0
    7.6916    4.2868   -2.2522 C   0  0  0  0  0  0  0  0  0  0  0  0
    7.3185    4.7566    0.2226 C   0  0  0  0  0  0  0  0  0  0  0  0
    6.5161    4.3040    1.2519 N   0  0  0  0  0  0  0  0  0  0  0  0
    6.7077    4.7130    2.6099 C   0  0  0  0  0  0  0  0  0  0  0  0
    6.7692    3.7139    3.5999 C   0  0  0  0  0  0  0  0  0  0  0  0
    6.9218    4.0525    4.9441 C   0  0  0  0  0  0  0  0  0  0  0  0
    7.0583    5.3845    5.2992 C   0  0  0  0  0  0  0  0  0  0  0  0
    7.1937    5.7166    6.5897 F   0  0  0  0  0  0  0  0  0  0  0  0
    7.0566    6.3843    4.3329 C   0  0  0  0  0  0  0  0  0  0  0  0
    6.8764    6.0725    2.9718 C   0  0  0  0  0  0  0  0  0  0  0  0
    6.8538    7.2254    2.0031 C   0  0  0  0  0  0  0  0  0  0  0  0
    5.6472    3.3264    0.7395 C   0  0  0  0  0  0  0  0  0  0  0  0
    0.8434   -1.1922   -0.5346 H   0  0  0  0  0  0  0  0  0  0  0  0
    0.5224    0.1959    0.5117 H   0  0  0  0  0  0  0  0  0  0  0  0
    1.1013   -1.3657    1.2058 H   0  0  0  0  0  0  0  0  0  0  0  0
    1.8059    0.2108    2.7259 H   0  0  0  0  0  0  0  0  0  0  0  0
    2.6221    2.0903    4.0768 H   0  0  0  0  0  0  0  0  0  0  0  0
    4.2785    3.6331    3.1728 H   0  0  0  0  0  0  0  0  0  0  0  0
    5.5790    1.9796   -2.4063 H   0  0  0  0  0  0  0  0  0  0  0  0
    7.2794    3.6321   -3.0260 H   0  0  0  0  0  0  0  0  0  0  0  0
    8.7639    4.0831   -2.1721 H   0  0  0  0  0  0  0  0  0  0  0  0
    7.5638    5.3226   -2.5858 H   0  0  0  0  0  0  0  0  0  0  0  0
    8.1029    5.4765    0.4063 H   0  0  0  0  0  0  0  0  0  0  0  0
    6.7028    2.6587    3.3368 H   0  0  0  0  0  0  0  0  0  0  0  0
    6.9370    3.2867    5.7134 H   0  0  0  0  0  0  0  0  0  0  0  0
    7.1795    7.4150    4.6590 H   0  0  0  0  0  0  0  0  0  0  0  0
    6.6670    8.1734    2.5206 H   0  0  0  0  0  0  0  0  0  0  0  0
    6.0516    7.1095    1.2671 H   0  0  0  0  0  0  0  0  0  0  0  0
    7.8195    7.3277    1.5013 H   0  0  0  0  0  0  0  0  0  0  0  0
  1  2  1  0  0  0  0
  1 25  1  0  0  0  0
  1 26  1  0  0  0  0
  1 27  1  0  0  0  0
  2  3  1  0  0  0  0
  3  4  1  0  0  0  0
  3  8  2  0  0  0  0
  4  5  2  0  0  0  0
  4 28  1  0  0  0  0
  5  6  1  0  0  0  0
  5 29  1  0  0  0  0
  6  7  2  0  0  0  0
  6 30  1  0  0  0  0
  7  8  1  0  0  0  0
  7 24  1  0  0  0  0
  8  9  1  0  0  0  0
  9 10  2  0  0  0  0
 10 11  1  0  0  0  0
 10 31  1  0  0  0  0
 11 12  1  0  0  0  0
 11 24  2  0  0  0  0
 12 13  1  0  0  0  0
 12 14  2  0  0  0  0
 13 32  1  0  0  0  0
 13 33  1  0  0  0  0
 13 34  1  0  0  0  0
 14 15  1  0  0  0  0
 14 35  1  0  0  0  0
 15 16  1  0  0  0  0
 15 24  1  0  0  0  0
 16 17  1  0  0  0  0
 16 22  2  0  0  0  0
 17 18  2  0  0  0  0
 17 36  1  0  0  0  0
 18 19  1  0  0  0  0
 18 37  1  0  0  0  0
 19 20  1  0  0  0  0
 19 21  2  0  0  0  0
 21 22  1  0  0  0  0
 21 38  1  0  0  0  0
 22 23  1  0  0  0  0
 23 39  1  0  0  0  0
 23 40  1  0  0  0  0
 23 41  1  0  0  0  0
M  END
>  <Energy>
127.469

$$$$

 OpenBabel04232614443D

 29 31  0  0  0  0  0  0  0  0999 V2000
    1.8110    4.4302   -0.1890 C   0  0  0  0  0  0  0  0  0  0  0  0
    2.3425    3.1264   -0.5080 N   0  0  0  0  0  0  0  0  0  0  0  0
    3.0530    2.5159    0.5149 C   0  0  0  0  0  0  0  0  0  0  0  0
    4.0413    1.7057    0.1168 N   0  0  0  0  0  0  0  0  0  0  0  0
    4.7447    1.0849    1.0780 C   0  0  0  0  0  0  0  0  0  0  0  0
    4.5031    1.2501    2.4169 C   0  0  0  0  0  0  0  0  0  0  0  0
    3.4750    2.1113    2.7344 C   0  0  0  0  0  0  0  0  0  0  0  0
    3.1293    2.3964    4.1243 C   0  0  0  0  0  0  0  0  0  0  0  0
    3.2736    1.4830    5.1543 C   0  0  0  0  0  0  0  0  0  0  0  0
    2.8789    2.0808    6.3212 N   0  0  0  0  0  0  0  0  0  0  0  0
    2.4777    3.3736    6.0829 C   0  0  0  0  0  0  0  0  0  0  0  0
    2.0173    4.3488    6.9764 C   0  0  0  0  0  0  0  0  0  0  0  0
    1.6655    5.5953    6.4511 C   0  0  0  0  0  0  0  0  0  0  0  0
    1.7697    5.8437    5.0854 C   0  0  0  0  0  0  0  0  0  0  0  0
    1.2781    7.5415    4.4079 Br  0  0  0  0  0  0  0  0  0  0  0  0
    2.2347    4.8632    4.2037 C   0  0  0  0  0  0  0  0  0  0  0  0
    2.6016    3.5966    4.7091 C   0  0  0  0  0  0  0  0  0  0  0  0
    2.7501    2.7544    1.7971 N   0  0  0  0  0  0  0  0  0  0  0  0
    1.3671    4.8665   -1.0895 H   0  0  0  0  0  0  0  0  0  0  0  0
    2.5930    5.1137    0.1600 H   0  0  0  0  0  0  0  0  0  0  0  0
    1.0197    4.3666    0.5658 H   0  0  0  0  0  0  0  0  0  0  0  0
    2.9325    3.0751   -1.3310 H   0  0  0  0  0  0  0  0  0  0  0  0
    5.5379    0.4328    0.7254 H   0  0  0  0  0  0  0  0  0  0  0  0
    5.1013    0.7451    3.1610 H   0  0  0  0  0  0  0  0  0  0  0  0
    3.6125    0.4557    5.1619 H   0  0  0  0  0  0  0  0  0  0  0  0
    2.8796    1.6407    7.2312 H   0  0  0  0  0  0  0  0  0  0  0  0
    1.9351    4.1516    8.0405 H   0  0  0  0  0  0  0  0  0  0  0  0
    1.3068    6.3698    7.1248 H   0  0  0  0  0  0  0  0  0  0  0  0
    2.3150    5.0635    3.1398 H   0  0  0  0  0  0  0  0  0  0  0  0
  1  2  1  0  0  0  0
  1 19  1  0  0  0  0
  1 20  1  0  0  0  0
  1 21  1  0  0  0  0
  2  3  1  0  0  0  0
  2 22  1  0  0  0  0
  3  4  1  0  0  0  0
  3 18  2  0  0  0  0
  4  5  2  0  0  0  0
  5  6  1  0  0  0  0
  5 23  1  0  0  0  0
  6  7  2  0  0  0  0
  6 24  1  0  0  0  0
  7  8  1  0  0  0  0
  7 18  1  0  0  0  0
  8  9  2  0  0  0  0
  8 17  1  0  0  0  0
  9 10  1  0  0  0  0
  9 25  1  0  0  0  0
 10 11  1  0  0  0  0
 10 26  1  0  0  0  0
 11 12  1  0  0  0  0
 11 17  2  0  0  0  0
 12 13  2  0  0  0  0
 12 27  1  0  0  0  0
 13 14  1  0  0  0  0
 13 28  1  0  0  0  0
 14 15  1  0  0  0  0
 14 16  2  0  0  0  0
 16 17  1  0  0  0  0
 16 29  1  0  0  0  0
M  END
>  <Energy>
-73.5536

$$$$

 OpenBabel04232614443D

 32 34  0  0  0  0  0  0  0  0999 V2000
   -2.4819   -2.2775   -2.3579 O   0  0  0  0  0  0  0  0  0  0  0  0
   -1.5742   -2.0079   -1.5946 C   0  0  0  0  0  0  0  0  0  0  0  0
   -0.4732   -2.7709   -1.3266 O   0  0  0  0  0  0  0  0  0  0  0  0
    0.4032   -2.1422   -0.3658 C   0  0  0  0  0  0  0  0  0  0  0  0
   -0.2815   -0.8707   -0.0639 C   0  0  0  0  0  0  0  0  0  0  0  0
    0.0803    0.1607    0.7793 C   0  0  0  0  0  0  0  0  0  0  0  0
   -0.7652    1.2741    0.8569 C   0  0  0  0  0  0  0  0  0  0  0  0
   -1.9532    1.3457    0.0997 C   0  0  0  0  0  0  0  0  0  0  0  0
   -2.8281    2.4484    0.1961 N   0  0  0  0  0  0  0  0  0  0  0  0
   -2.4925    3.8012    0.2782 C   0  0  0  0  0  0  0  0  0  0  0  0
   -1.0199    4.4741   -0.1601 S   0  0  0  0  0  0  0  0  0  0  0  0
   -3.5819    4.5059    0.7867 N   0  0  0  0  0  0  0  0  0  0  0  0
   -3.8854    5.8745    0.6294 C   0  0  0  0  0  0  0  0  0  0  0  0
   -4.5257    6.5379    1.6819 C   0  0  0  0  0  0  0  0  0  0  0  0
   -4.8813    7.8834    1.5562 C   0  0  0  0  0  0  0  0  0  0  0  0
   -4.6342    8.5603    0.3633 C   0  0  0  0  0  0  0  0  0  0  0  0
   -4.0303    7.8895   -0.6976 C   0  0  0  0  0  0  0  0  0  0  0  0
   -3.7729    8.7100   -2.1889 Cl  0  0  0  0  0  0  0  0  0  0  0  0
   -3.6531    6.5534   -0.5700 C   0  0  0  0  0  0  0  0  0  0  0  0
   -2.3223    0.2729   -0.7127 C   0  0  0  0  0  0  0  0  0  0  0  0
   -1.4550   -0.8029   -0.7873 C   0  0  0  0  0  0  0  0  0  0  0  0
    1.3818   -1.9880   -0.8278 H   0  0  0  0  0  0  0  0  0  0  0  0
    0.4830   -2.7888    0.5129 H   0  0  0  0  0  0  0  0  0  0  0  0
    0.9900    0.1214    1.3691 H   0  0  0  0  0  0  0  0  0  0  0  0
   -0.4982    2.0770    1.5422 H   0  0  0  0  0  0  0  0  0  0  0  0
   -3.7625    2.3054   -0.1707 H   0  0  0  0  0  0  0  0  0  0  0  0
   -4.0194    4.0402    1.5735 H   0  0  0  0  0  0  0  0  0  0  0  0
   -4.7249    6.0291    2.6216 H   0  0  0  0  0  0  0  0  0  0  0  0
   -5.3517    8.4028    2.3873 H   0  0  0  0  0  0  0  0  0  0  0  0
   -4.9212    9.6041    0.2619 H   0  0  0  0  0  0  0  0  0  0  0  0
   -3.2191    6.0435   -1.4250 H   0  0  0  0  0  0  0  0  0  0  0  0
   -3.2309    0.2806   -1.3072 H   0  0  0  0  0  0  0  0  0  0  0  0
  1  2  2  0  0  0  0
  2  3  1  0  0  0  0
  2 21  1  0  0  0  0
  3  4  1  0  0  0  0
  4  5  1  0  0  0  0
  4 22  1  0  0  0  0
  4 23  1  0  0  0  0
  5  6  1  0  0  0  0
  5 21  2  0  0  0  0
  6  7  2  0  0  0  0
  6 24  1  0  0  0  0
  7  8  1  0  0  0  0
  7 25  1  0  0  0  0
  8  9  1  0  0  0  0
  8 20  2  0  0  0  0
  9 10  1  0  0  0  0
  9 26  1  0  0  0  0
 10 11  2  0  0  0  0
 10 12  1  0  0  0  0
 12 13  1  0  0  0  0
 12 27  1  0  0  0  0
 13 14  1  0  0  0  0
 13 19  2  0  0  0  0
 14 15  2  0  0  0  0
 14 28  1  0  0  0  0
 15 16  1  0  0  0  0
 15 29  1  0  0  0  0
 16 17  2  0  0  0  0
 16 30  1  0  0  0  0
 17 18  1  0  0  0  0
 17 19  1  0  0  0  0
 19 31  1  0  0  0  0
 20 21  1  0  0  0  0
 20 32  1  0  0  0  0
M  END
>  <Energy>
10.5724

$$$$

 OpenBabel04232614443D

 38 40  0  0  0  0  0  0  0  0999 V2000
   -2.5170    0.4478   -0.0272 C   0  0  0  0  0  0  0  0  0  0  0  0
   -1.0641    0.2123    0.3847 C   0  0  0  0  0  0  0  0  0  0  0  0
   -0.5198   -1.0453   -0.2954 C   0  0  0  0  0  0  0  0  0  0  0  0
    0.9539   -1.2712    0.0303 C   0  0  0  0  0  0  0  0  0  0  0  0
    1.7535   -0.0846   -0.2790 N   0  0  0  0  0  0  0  0  0  0  0  0
    2.9316   -0.0639   -1.0412 C   0  0  0  0  0  0  0  0  0  0  0  0
    3.4597    0.9980   -1.3767 O   0  0  0  0  0  0  0  0  0  0  0  0
    3.5233   -1.3317   -1.4967 C   0  0  0  0  0  0  0  0  0  0  0  0
    4.2231   -1.5446   -2.7159 C   0  0  0  0  0  0  0  0  0  0  0  0
    4.4979   -2.8924   -2.7405 C   0  0  0  0  0  0  0  0  0  0  0  0
    5.0827   -3.8176   -3.7041 C   0  0  0  0  0  0  0  0  0  0  0  0
    5.6861   -3.3428   -4.8786 C   0  0  0  0  0  0  0  0  0  0  0  0
    6.2277   -4.2310   -5.8155 C   0  0  0  0  0  0  0  0  0  0  0  0
    6.1675   -5.6034   -5.5878 C   0  0  0  0  0  0  0  0  0  0  0  0
    6.8298   -6.6943   -6.7402 Cl  0  0  0  0  0  0  0  0  0  0  0  0
    5.5707   -6.0959   -4.4318 C   0  0  0  0  0  0  0  0  0  0  0  0
    5.0323   -5.2068   -3.4964 C   0  0  0  0  0  0  0  0  0  0  0  0
    4.0877   -3.4320   -1.5588 O   0  0  0  0  0  0  0  0  0  0  0  0
    3.5202   -2.4584   -0.7653 N   0  0  0  0  0  0  0  0  0  0  0  0
    1.2882    1.1565    0.3385 C   0  0  0  0  0  0  0  0  0  0  0  0
   -0.1867    1.4218    0.0318 C   0  0  0  0  0  0  0  0  0  0  0  0
   -3.1340   -0.4226    0.2217 H   0  0  0  0  0  0  0  0  0  0  0  0
   -2.6007    0.6218   -1.1047 H   0  0  0  0  0  0  0  0  0  0  0  0
   -2.9328    1.3156    0.4923 H   0  0  0  0  0  0  0  0  0  0  0  0
   -1.0354    0.0628    1.4720 H   0  0  0  0  0  0  0  0  0  0  0  0
   -0.6316   -0.9533   -1.3840 H   0  0  0  0  0  0  0  0  0  0  0  0
   -1.0983   -1.9245    0.0124 H   0  0  0  0  0  0  0  0  0  0  0  0
    1.2643   -2.1440   -0.5394 H   0  0  0  0  0  0  0  0  0  0  0  0
    1.0878   -1.4907    1.0963 H   0  0  0  0  0  0  0  0  0  0  0  0
    4.4256   -0.8122   -3.4833 H   0  0  0  0  0  0  0  0  0  0  0  0
    5.7452   -2.2759   -5.0824 H   0  0  0  0  0  0  0  0  0  0  0  0
    6.6924   -3.8442   -6.7188 H   0  0  0  0  0  0  0  0  0  0  0  0
    5.5167   -7.1661   -4.2499 H   0  0  0  0  0  0  0  0  0  0  0  0
    4.5632   -5.6178   -2.6038 H   0  0  0  0  0  0  0  0  0  0  0  0
    1.8867    2.0137    0.0171 H   0  0  0  0  0  0  0  0  0  0  0  0
    1.4335    1.0512    1.4209 H   0  0  0  0  0  0  0  0  0  0  0  0
   -0.2930    1.6556   -1.0351 H   0  0  0  0  0  0  0  0  0  0  0  0
   -0.5226    2.3034    0.5897 H   0  0  0  0  0  0  0  0  0  0  0  0
  1  2  1  0  0  0  0
  1 22  1  0  0  0  0
  1 23  1  0  0  0  0
  1 24  1  0  0  0  0
  2  3  1  0  0  0  0
  2 21  1  0  0  0  0
  2 25  1  0  0  0  0
  3  4  1  0  0  0  0
  3 26  1  0  0  0  0
  3 27  1  0  0  0  0
  4  5  1  0  0  0  0
  4 28  1  0  0  0  0
  4 29  1  0  0  0  0
  5  6  1  0  0  0  0
  5 20  1  0  0  0  0
  6  7  2  0  0  0  0
  6  8  1  0  0  0  0
  8  9  1  0  0  0  0
  8 19  2  0  0  0  0
  9 10  2  0  0  0  0
  9 30  1  0  0  0  0
 10 11  1  0  0  0  0
 10 18  1  0  0  0  0
 11 12  1  0  0  0  0
 11 17  2  0  0  0  0
 12 13  2  0  0  0  0
 12 31  1  0  0  0  0
 13 14  1  0  0  0  0
 13 32  1  0  0  0  0
 14 15  1  0  0  0  0
 14 16  2  0  0  0  0
 16 17  1  0  0  0  0
 16 33  1  0  0  0  0
 17 34  1  0  0  0  0
 18 19  1  0  0  0  0
 20 21  1  0  0  0  0
 20 35  1  0  0  0  0
 20 36  1  0  0  0  0
 21 37  1  0  0  0  0
 21 38  1  0  0  0  0
M  END
>  <Energy>
42.0117

$$$$

 OpenBabel04232614443D

 29 32  0  0  0  0  0  0  0  0999 V2000
    1.5956    2.2404    0.1998 O   0  0  0  0  0  0  0  0  0  0  0  0
    1.2650    1.0740    0.0935 C   0  0  0  0  0  0  0  0  0  0  0  0
   -0.1449    0.6779    0.0648 C   0  0  0  0  0  0  0  0  0  0  0  0
   -1.2951    1.4421    0.1285 C   0  0  0  0  0  0  0  0  0  0  0  0
   -2.5197    0.7658    0.0810 C   0  0  0  0  0  0  0  0  0  0  0  0
   -2.5665   -0.6396   -0.0211 C   0  0  0  0  0  0  0  0  0  0  0  0
   -1.3901   -1.3895   -0.0951 C   0  0  0  0  0  0  0  0  0  0  0  0
   -0.1947   -0.6957   -0.0616 C   0  0  0  0  0  0  0  0  0  0  0  0
    1.1764   -1.1883   -0.1416 C   0  0  0  0  0  0  0  0  0  0  0  0
    1.4140   -2.3814   -0.2114 O   0  0  0  0  0  0  0  0  0  0  0  0
    1.9859   -0.0847   -0.0635 N   0  0  0  0  0  0  0  0  0  0  0  0
    3.3639   -0.0924   -0.0913 C   0  0  0  0  0  0  0  0  0  0  0  0
    4.1570    0.8646    0.3417 N   0  0  0  0  0  0  0  0  0  0  0  0
    5.4878    0.5197    0.1522 C   0  0  0  0  0  0  0  0  0  0  0  0
    6.6025    1.3902    0.6526 C   0  0  0  0  0  0  0  0  0  0  0  0
    6.3981    2.5321    1.3995 C   0  0  0  0  0  0  0  0  0  0  0  0
    7.6246    3.1521    1.7847 C   0  0  0  0  0  0  0  0  0  0  0  0
    8.7199    2.4713    1.3026 C   0  0  0  0  0  0  0  0  0  0  0  0
    8.2679    1.0877    0.4067 S   0  0  0  0  0  0  0  0  0  0  0  0
    5.6852   -0.6765   -0.5042 C   0  0  0  0  0  0  0  0  0  0  0  0
    4.1807   -1.4280   -0.8022 S   0  0  0  0  0  0  0  0  0  0  0  0
   -1.2482    2.5239    0.2069 H   0  0  0  0  0  0  0  0  0  0  0  0
   -3.4502    1.3293    0.1255 H   0  0  0  0  0  0  0  0  0  0  0  0
   -3.5305   -1.1450   -0.0459 H   0  0  0  0  0  0  0  0  0  0  0  0
   -1.4094   -2.4722   -0.1758 H   0  0  0  0  0  0  0  0  0  0  0  0
    5.4140    2.8964    1.6729 H   0  0  0  0  0  0  0  0  0  0  0  0
    7.6968    4.0508    2.3859 H   0  0  0  0  0  0  0  0  0  0  0  0
    9.7652    2.7153    1.4366 H   0  0  0  0  0  0  0  0  0  0  0  0
    6.6105   -1.1566   -0.7870 H   0  0  0  0  0  0  0  0  0  0  0  0
  1  2  2  0  0  0  0
  2  3  1  0  0  0  0
  2 11  1  0  0  0  0
  3  4  1  0  0  0  0
  3  8  2  0  0  0  0
  4  5  2  0  0  0  0
  4 22  1  0  0  0  0
  5  6  1  0  0  0  0
  5 23  1  0  0  0  0
  6  7  2  0  0  0  0
  6 24  1  0  0  0  0
  7  8  1  0  0  0  0
  7 25  1  0  0  0  0
  8  9  1  0  0  0  0
  9 10  2  0  0  0  0
  9 11  1  0  0  0  0
 11 12  1  0  0  0  0
 12 13  2  0  0  0  0
 12 21  1  0  0  0  0
 13 14  1  0  0  0  0
 14 15  1  0  0  0  0
 14 20  2  0  0  0  0
 15 16  2  0  0  0  0
 15 19  1  0  0  0  0
 16 17  1  0  0  0  0
 16 26  1  0  0  0  0
 17 18  2  0  0  0  0
 17 27  1  0  0  0  0
 18 19  1  0  0  0  0
 18 28  1  0  0  0  0
 20 21  1  0  0  0  0
 20 29  1  0  0  0  0
M  END
>  <Energy>
15.3268

$$$$

 OpenBabel04232614443D

 39 42  0  0  0  0  0  0  0  0999 V2000
    0.3475    1.3710   -2.7191 C   0  0  0  0  0  0  0  0  0  0  0  0
    0.0404    0.7970   -1.3683 C   0  0  0  0  0  0  0  0  0  0  0  0
    0.3831    1.4765   -0.2025 C   0  0  0  0  0  0  0  0  0  0  0  0
    0.1282    0.9031    1.0429 C   0  0  0  0  0  0  0  0  0  0  0  0
   -0.4636   -0.3685    1.1564 C   0  0  0  0  0  0  0  0  0  0  0  0
   -0.6545   -0.9231    2.5415 C   0  0  0  0  0  0  0  0  0  0  0  0
   -0.8505   -1.0525   -0.0163 C   0  0  0  0  0  0  0  0  0  0  0  0
   -1.4974   -2.4244   -0.0226 C   0  0  0  0  0  0  0  0  0  0  0  0
   -2.9551   -2.4124   -0.0504 N   0  0  0  0  0  0  0  0  0  0  0  0
   -3.6565   -2.6198    1.1345 C   0  0  0  0  0  0  0  0  0  0  0  0
   -4.9293   -2.8468    1.2807 N   0  0  0  0  0  0  0  0  0  0  0  0
   -5.6171   -2.8717    0.0654 C   0  0  0  0  0  0  0  0  0  0  0  0
   -5.0141   -2.6318   -1.1341 C   0  0  0  0  0  0  0  0  0  0  0  0
   -5.9129   -2.7113   -2.1514 O   0  0  0  0  0  0  0  0  0  0  0  0
   -7.1088   -3.0441   -1.5674 C   0  0  0  0  0  0  0  0  0  0  0  0
   -8.3131   -3.2383   -2.2435 C   0  0  0  0  0  0  0  0  0  0  0  0
   -9.4135   -3.6234   -1.4687 C   0  0  0  0  0  0  0  0  0  0  0  0
   -9.2996   -3.8044   -0.0872 C   0  0  0  0  0  0  0  0  0  0  0  0
   -8.0819   -3.5837    0.5725 C   0  0  0  0  0  0  0  0  0  0  0  0
   -6.9657   -3.1854   -0.1845 C   0  0  0  0  0  0  0  0  0  0  0  0
   -3.6091   -2.4085   -1.2929 C   0  0  0  0  0  0  0  0  0  0  0  0
   -3.0357   -2.2952   -2.3705 O   0  0  0  0  0  0  0  0  0  0  0  0
   -0.5818   -0.4530   -1.2649 C   0  0  0  0  0  0  0  0  0  0  0  0
    0.7855    2.3713   -2.6401 H   0  0  0  0  0  0  0  0  0  0  0  0
   -0.5675    1.4512   -3.3145 H   0  0  0  0  0  0  0  0  0  0  0  0
    1.0645    0.7309   -3.2439 H   0  0  0  0  0  0  0  0  0  0  0  0
    0.8589    2.4531   -0.2509 H   0  0  0  0  0  0  0  0  0  0  0  0
    0.4151    1.4571    1.9354 H   0  0  0  0  0  0  0  0  0  0  0  0
   -0.0420   -0.3810    3.2721 H   0  0  0  0  0  0  0  0  0  0  0  0
   -0.3396   -1.9688    2.5975 H   0  0  0  0  0  0  0  0  0  0  0  0
   -1.6993   -0.8290    2.8477 H   0  0  0  0  0  0  0  0  0  0  0  0
   -1.1614   -3.0033    0.8445 H   0  0  0  0  0  0  0  0  0  0  0  0
   -1.1329   -2.9855   -0.8932 H   0  0  0  0  0  0  0  0  0  0  0  0
   -3.0261   -2.5826    2.0364 H   0  0  0  0  0  0  0  0  0  0  0  0
   -8.3855   -3.1046   -3.3162 H   0  0  0  0  0  0  0  0  0  0  0  0
  -10.3741   -3.7918   -1.9529 H   0  0  0  0  0  0  0  0  0  0  0  0
  -10.1679   -4.1215    0.4871 H   0  0  0  0  0  0  0  0  0  0  0  0
   -7.9962   -3.7297    1.6453 H   0  0  0  0  0  0  0  0  0  0  0  0
   -0.8469   -0.9789   -2.1834 H   0  0  0  0  0  0  0  0  0  0  0  0
  1  2  1  0  0  0  0
  1 24  1  0  0  0  0
  1 25  1  0  0  0  0
  1 26  1  0  0  0  0
  2  3  1  0  0  0  0
  2 23  2  0  0  0  0
  3  4  2  0  0  0  0
  3 27  1  0  0  0  0
  4  5  1  0  0  0  0
  4 28  1  0  0  0  0
  5  6  1  0  0  0  0
  5  7  2  0  0  0  0
  6 29  1  0  0  0  0
  6 30  1  0  0  0  0
  6 31  1  0  0  0  0
  7  8  1  0  0  0  0
  7 23  1  0  0  0  0
  8  9  1  0  0  0  0
  8 32  1  0  0  0  0
  8 33  1  0  0  0  0
  9 10  1  0  0  0  0
  9 21  1  0  0  0  0
 10 11  2  0  0  0  0
 10 34  1  0  0  0  0
 11 12  1  0  0  0  0
 12 13  2  0  0  0  0
 12 20  1  0  0  0  0
 13 14  1  0  0  0  0
 13 21  1  0  0  0  0
 14 15  1  0  0  0  0
 15 16  1  0  0  0  0
 15 20  2  0  0  0  0
 16 17  2  0  0  0  0
 16 35  1  0  0  0  0
 17 18  1  0  0  0  0
 17 36  1  0  0  0  0
 18 19  2  0  0  0  0
 18 37  1  0  0  0  0
 19 20  1  0  0  0  0
 19 38  1  0  0  0  0
 21 22  2  0  0  0  0
 23 39  1  0  0  0  0
M  END
>  <Energy>
19.8644

$$$$

 OpenBabel04232614443D

 31 33  0  0  0  0  0  0  0  0999 V2000
    1.0502    0.0504   -0.2891 N   0  0  0  0  0  0  0  0  0  0  0  0
    2.4075    0.0446   -0.2076 C   0  0  0  0  0  0  0  0  0  0  0  0
    3.2688    1.1105   -0.2691 C   0  0  0  0  0  0  0  0  0  0  0  0
    4.5545    0.5970    0.0385 C   0  0  0  0  0  0  0  0  0  0  0  0
    5.8145    1.3463    0.1074 C   0  0  0  0  0  0  0  0  0  0  0  0
    6.9129    0.8422    0.8211 C   0  0  0  0  0  0  0  0  0  0  0  0
    8.1112    1.5632    0.8938 C   0  0  0  0  0  0  0  0  0  0  0  0
    8.2206    2.7918    0.2470 C   0  0  0  0  0  0  0  0  0  0  0  0
    9.6900    3.6813    0.3360 Cl  0  0  0  0  0  0  0  0  0  0  0  0
    7.1466    3.3041   -0.4742 C   0  0  0  0  0  0  0  0  0  0  0  0
    5.9489    2.5841   -0.5440 C   0  0  0  0  0  0  0  0  0  0  0  0
    4.4861   -0.7149    0.3113 N   0  0  0  0  0  0  0  0  0  0  0  0
    3.2065   -1.0782    0.0182 N   0  0  0  0  0  0  0  0  0  0  0  0
    2.8410   -2.4541   -0.0168 C   0  0  0  0  0  0  0  0  0  0  0  0
    1.7423   -2.8891   -0.7730 C   0  0  0  0  0  0  0  0  0  0  0  0
    1.3850   -4.2391   -0.7857 C   0  0  0  0  0  0  0  0  0  0  0  0
    2.1201   -5.1607   -0.0424 C   0  0  0  0  0  0  0  0  0  0  0  0
    3.2275   -4.7341    0.6902 C   0  0  0  0  0  0  0  0  0  0  0  0
    4.1240   -5.8781    1.6123 Cl  0  0  0  0  0  0  0  0  0  0  0  0
    3.6059   -3.3911    0.6940 C   0  0  0  0  0  0  0  0  0  0  0  0
    0.5646    0.9435   -0.2165 H   0  0  0  0  0  0  0  0  0  0  0  0
    0.5241   -0.6894    0.1749 H   0  0  0  0  0  0  0  0  0  0  0  0
    2.9964    2.1384   -0.4576 H   0  0  0  0  0  0  0  0  0  0  0  0
    6.8409   -0.1171    1.3302 H   0  0  0  0  0  0  0  0  0  0  0  0
    8.9490    1.1585    1.4545 H   0  0  0  0  0  0  0  0  0  0  0  0
    7.2318    4.2589   -0.9868 H   0  0  0  0  0  0  0  0  0  0  0  0
    5.1315    3.0008   -1.1266 H   0  0  0  0  0  0  0  0  0  0  0  0
    1.1803   -2.2038   -1.4034 H   0  0  0  0  0  0  0  0  0  0  0  0
    0.5394   -4.5721   -1.3834 H   0  0  0  0  0  0  0  0  0  0  0  0
    1.8320   -6.2089   -0.0461 H   0  0  0  0  0  0  0  0  0  0  0  0
    4.4699   -3.0771    1.2752 H   0  0  0  0  0  0  0  0  0  0  0  0
  1  2  1  0  0  0  0
  1 21  1  0  0  0  0
  1 22  1  0  0  0  0
  2  3  2  0  0  0  0
  2 13  1  0  0  0  0
  3  4  1  0  0  0  0
  3 23  1  0  0  0  0
  4  5  1  0  0  0  0
  4 12  2  0  0  0  0
  5  6  1  0  0  0  0
  5 11  2  0  0  0  0
  6  7  2  0  0  0  0
  6 24  1  0  0  0  0
  7  8  1  0  0  0  0
  7 25  1  0  0  0  0
  8  9  1  0  0  0  0
  8 10  2  0  0  0  0
 10 11  1  0  0  0  0
 10 26  1  0  0  0  0
 11 27  1  0  0  0  0
 12 13  1  0  0  0  0
 13 14  1  0  0  0  0
 14 15  1  0  0  0  0
 14 20  2  0  0  0  0
 15 16  2  0  0  0  0
 15 28  1  0  0  0  0
 16 17  1  0  0  0  0
 16 29  1  0  0  0  0
 17 18  2  0  0  0  0
 17 30  1  0  0  0  0
 18 19  1  0  0  0  0
 18 20  1  0  0  0  0
 20 31  1  0  0  0  0
M  END
>  <Energy>
93.2475

$$$$

 OpenBabel04232614443D

 28 29  0  0  0  0  0  0  0  0999 V2000
    1.0474   -0.0170   -0.0815 C   0  0  0  0  0  0  0  0  0  0  0  0
    2.5294    0.0512   -0.0837 C   0  0  0  0  0  0  0  0  0  0  0  0
    3.3459    1.1979   -0.0967 C   0  0  0  0  0  0  0  0  0  0  0  0
    4.6480    0.7354   -0.0943 C   0  0  0  0  0  0  0  0  0  0  0  0
    5.9075    1.5196   -0.0880 C   0  0  0  0  0  0  0  0  0  0  0  0
    4.5513   -0.6516   -0.0488 N   0  0  0  0  0  0  0  0  0  0  0  0
    5.9239   -1.7319   -0.0815 S   0  0  0  0  0  0  0  0  0  0  0  0
    6.9846   -1.0419    0.6333 O   0  0  0  0  0  0  0  0  0  0  0  0
    5.4652   -3.0332    0.3675 O   0  0  0  0  0  0  0  0  0  0  0  0
    6.4030   -1.8616   -1.7830 C   0  0  0  0  0  0  0  0  0  0  0  0
    7.6881   -1.4071   -2.1325 C   0  0  0  0  0  0  0  0  0  0  0  0
    8.1546   -1.5613   -3.4369 C   0  0  0  0  0  0  0  0  0  0  0  0
    9.7294   -1.0120   -3.8536 Cl  0  0  0  0  0  0  0  0  0  0  0  0
    7.3582   -2.1694   -4.4005 C   0  0  0  0  0  0  0  0  0  0  0  0
    6.0849   -2.6256   -4.0540 C   0  0  0  0  0  0  0  0  0  0  0  0
    5.6007   -2.4802   -2.7453 C   0  0  0  0  0  0  0  0  0  0  0  0
    4.0314   -3.1201   -2.4471 Cl  0  0  0  0  0  0  0  0  0  0  0  0
    3.2534   -1.0691   -0.0770 N   0  0  0  0  0  0  0  0  0  0  0  0
    0.6067    0.9853   -0.0818 H   0  0  0  0  0  0  0  0  0  0  0  0
    0.6876   -0.5437    0.8082 H   0  0  0  0  0  0  0  0  0  0  0  0
    0.6853   -0.5458   -0.9690 H   0  0  0  0  0  0  0  0  0  0  0  0
    3.0272    2.2322   -0.1011 H   0  0  0  0  0  0  0  0  0  0  0  0
    5.6912    2.5913   -0.1612 H   0  0  0  0  0  0  0  0  0  0  0  0
    6.5423    1.2562   -0.9381 H   0  0  0  0  0  0  0  0  0  0  0  0
    6.4606    1.3732    0.8440 H   0  0  0  0  0  0  0  0  0  0  0  0
    8.3406   -0.9512   -1.3895 H   0  0  0  0  0  0  0  0  0  0  0  0
    7.7230   -2.3047   -5.4163 H   0  0  0  0  0  0  0  0  0  0  0  0
    5.4754   -3.1143   -4.8131 H   0  0  0  0  0  0  0  0  0  0  0  0
  1  2  1  0  0  0  0
  1 19  1  0  0  0  0
  1 20  1  0  0  0  0
  1 21  1  0  0  0  0
  2  3  1  0  0  0  0
  2 18  2  0  0  0  0
  3  4  2  0  0  0  0
  3 22  1  0  0  0  0
  4  5  1  0  0  0  0
  4  6  1  0  0  0  0
  5 23  1  0  0  0  0
  5 24  1  0  0  0  0
  5 25  1  0  0  0  0
  6  7  1  0  0  0  0
  6 18  1  0  0  0  0
  7  8  2  0  0  0  0
  7  9  2  0  0  0  0
  7 10  1  0  0  0  0
 10 11  1  0  0  0  0
 10 16  2  0  0  0  0
 11 12  2  0  0  0  0
 11 26  1  0  0  0  0
 12 13  1  0  0  0  0
 12 14  1  0  0  0  0
 14 15  2  0  0  0  0
 14 27  1  0  0  0  0
 15 16  1  0  0  0  0
 15 28  1  0  0  0  0
 16 17  1  0  0  0  0
M  END
>  <Energy>
127.841

$$$$

 OpenBabel04232614443D

 30 31  0  0  0  0  0  0  0  0999 V2000
    2.6595    1.1662   -0.4668 O   0  0  0  0  0  0  0  0  0  0  0  0
    2.2239    0.1489    0.0601 C   0  0  0  0  0  0  0  0  0  0  0  0
    0.8743   -0.1029    0.2604 N   0  0  0  0  0  0  0  0  0  0  0  0
   -0.1809    0.7825   -0.0725 C   0  0  0  0  0  0  0  0  0  0  0  0
   -0.0276    1.8874   -0.9073 C   0  0  0  0  0  0  0  0  0  0  0  0
   -1.1123    2.7240   -1.1132 C   0  0  0  0  0  0  0  0  0  0  0  0
   -2.3263    2.5288   -0.5619 N   0  0  0  0  0  0  0  0  0  0  0  0
   -2.4605    1.4412    0.2223 C   0  0  0  0  0  0  0  0  0  0  0  0
   -1.4357    0.5427    0.4861 C   0  0  0  0  0  0  0  0  0  0  0  0
    3.0167   -0.8747    0.5573 N   0  0  0  0  0  0  0  0  0  0  0  0
    4.4292   -0.8750    0.6286 C   0  0  0  0  0  0  0  0  0  0  0  0
    5.2245    0.2143    0.2579 C   0  0  0  0  0  0  0  0  0  0  0  0
    6.6169    0.1468    0.3397 C   0  0  0  0  0  0  0  0  0  0  0  0
    7.2252   -1.0089    0.8019 C   0  0  0  0  0  0  0  0  0  0  0  0
    8.5620   -1.0411    0.8624 F   0  0  0  0  0  0  0  0  0  0  0  0
    6.4690   -2.1076    1.1941 C   0  0  0  0  0  0  0  0  0  0  0  0
    7.1304   -3.3525    1.7025 C   0  0  0  0  0  0  0  0  0  0  0  0
    8.4891   -3.3434    1.6767 F   0  0  0  0  0  0  0  0  0  0  0  0
    6.7848   -3.6209    2.9938 F   0  0  0  0  0  0  0  0  0  0  0  0
    6.7550   -4.4532    0.9902 F   0  0  0  0  0  0  0  0  0  0  0  0
    5.0622   -2.0300    1.1082 C   0  0  0  0  0  0  0  0  0  0  0  0
    0.6352   -0.8818    0.8549 H   0  0  0  0  0  0  0  0  0  0  0  0
    0.9016    2.1254   -1.4086 H   0  0  0  0  0  0  0  0  0  0  0  0
   -1.0203    3.6030   -1.7454 H   0  0  0  0  0  0  0  0  0  0  0  0
   -3.4460    1.3110    0.6610 H   0  0  0  0  0  0  0  0  0  0  0  0
   -1.6253   -0.3019    1.1365 H   0  0  0  0  0  0  0  0  0  0  0  0
    2.5483   -1.7296    0.8186 H   0  0  0  0  0  0  0  0  0  0  0  0
    4.8012    1.1449   -0.1056 H   0  0  0  0  0  0  0  0  0  0  0  0
    7.2216    0.9976    0.0403 H   0  0  0  0  0  0  0  0  0  0  0  0
    4.4721   -2.8892    1.4239 H   0  0  0  0  0  0  0  0  0  0  0  0
  1  2  2  0  0  0  0
  2  3  1  0  0  0  0
  2 10  1  0  0  0  0
  3  4  1  0  0  0  0
  3 22  1  0  0  0  0
  4  5  1  0  0  0  0
  4  9  2  0  0  0  0
  5  6  2  0  0  0  0
  5 23  1  0  0  0  0
  6  7  1  0  0  0  0
  6 24  1  0  0  0  0
  7  8  2  0  0  0  0
  8  9  1  0  0  0  0
  8 25  1  0  0  0  0
  9 26  1  0  0  0  0
 10 11  1  0  0  0  0
 10 27  1  0  0  0  0
 11 12  1  0  0  0  0
 11 21  2  0  0  0  0
 12 13  2  0  0  0  0
 12 28  1  0  0  0  0
 13 14  1  0  0  0  0
 13 29  1  0  0  0  0
 14 15  1  0  0  0  0
 14 16  2  0  0  0  0
 16 17  1  0  0  0  0
 16 21  1  0  0  0  0
 17 18  1  0  0  0  0
 17 19  1  0  0  0  0
 17 20  1  0  0  0  0
 21 30  1  0  0  0  0
M  END
>  <Energy>
-37.2486

$$$$

 OpenBabel04232614443D

 30 31  0  0  0  0  0  0  0  0999 V2000
    3.8958   -0.0378   -1.5315 N   0  0  0  0  0  0  0  0  0  0  0  0
    2.9895   -0.0752   -0.1106 S   0  0  0  0  0  0  0  0  0  0  0  0
    1.6012   -0.1012   -0.5138 O   0  0  0  0  0  0  0  0  0  0  0  0
    3.5897   -1.1127    0.6904 O   0  0  0  0  0  0  0  0  0  0  0  0
    3.3490    1.4959    0.5965 C   0  0  0  0  0  0  0  0  0  0  0  0
    3.0085    2.6663   -0.0851 C   0  0  0  0  0  0  0  0  0  0  0  0
    3.3207    3.9107    0.4785 C   0  0  0  0  0  0  0  0  0  0  0  0
    3.9764    4.0137    1.7222 C   0  0  0  0  0  0  0  0  0  0  0  0
    4.3149    5.3286    2.3203 C   0  0  0  0  0  0  0  0  0  0  0  0
    4.3203    5.5188    3.7165 C   0  0  0  0  0  0  0  0  0  0  0  0
    4.6693    6.7466    4.2930 C   0  0  0  0  0  0  0  0  0  0  0  0
    5.0117    7.8343    3.4841 C   0  0  0  0  0  0  0  0  0  0  0  0
    5.4007    9.1634    4.0550 C   0  0  0  0  0  0  0  0  0  0  0  0
    5.3982    9.1768    5.4197 F   0  0  0  0  0  0  0  0  0  0  0  0
    6.6537    9.5512    3.6914 F   0  0  0  0  0  0  0  0  0  0  0  0
    4.5638   10.1692    3.6801 F   0  0  0  0  0  0  0  0  0  0  0  0
    4.9902    7.6623    2.1054 C   0  0  0  0  0  0  0  0  0  0  0  0
    5.3030    8.6863    1.3005 F   0  0  0  0  0  0  0  0  0  0  0  0
    4.6555    6.4366    1.5271 C   0  0  0  0  0  0  0  0  0  0  0  0
    4.3068    2.8124    2.3786 C   0  0  0  0  0  0  0  0  0  0  0  0
    3.9894    1.5650    1.8318 C   0  0  0  0  0  0  0  0  0  0  0  0
    3.2976   -0.2845   -2.3201 H   0  0  0  0  0  0  0  0  0  0  0  0
    4.7182   -0.6333   -1.4337 H   0  0  0  0  0  0  0  0  0  0  0  0
    2.5088    2.6186   -1.0500 H   0  0  0  0  0  0  0  0  0  0  0  0
    3.0311    4.8049   -0.0714 H   0  0  0  0  0  0  0  0  0  0  0  0
    4.0423    4.7055    4.3855 H   0  0  0  0  0  0  0  0  0  0  0  0
    4.6707    6.8426    5.3778 H   0  0  0  0  0  0  0  0  0  0  0  0
    4.6845    6.3670    0.4430 H   0  0  0  0  0  0  0  0  0  0  0  0
    4.8349    2.8261    3.3302 H   0  0  0  0  0  0  0  0  0  0  0  0
    4.2570    0.6600    2.3727 H   0  0  0  0  0  0  0  0  0  0  0  0
  1  2  1  0  0  0  0
  1 22  1  0  0  0  0
  1 23  1  0  0  0  0
  2  3  2  0  0  0  0
  2  4  2  0  0  0  0
  2  5  1  0  0  0  0
  5  6  1  0  0  0  0
  5 21  2  0  0  0  0
  6  7  2  0  0  0  0
  6 24  1  0  0  0  0
  7  8  1  0  0  0  0
  7 25  1  0  0  0  0
  8  9  1  0  0  0  0
  8 20  2  0  0  0  0
  9 10  1  0  0  0  0
  9 19  2  0  0  0  0
 10 11  2  0  0  0  0
 10 26  1  0  0  0  0
 11 12  1  0  0  0  0
 11 27  1  0  0  0  0
 12 13  1  0  0  0  0
 12 17  2  0  0  0  0
 13 14  1  0  0  0  0
 13 15  1  0  0  0  0
 13 16  1  0  0  0  0
 17 18  1  0  0  0  0
 17 19  1  0  0  0  0
 19 28  1  0  0  0  0
 20 21  1  0  0  0  0
 20 29  1  0  0  0  0
 21 30  1  0  0  0  0
M  END
>  <Energy>
-34.3626

$$$$

 OpenBabel04232614443D

 31 32  0  0  0  0  0  0  0  0999 V2000
    1.2064   -0.6857   -0.2563 C   0  0  0  0  0  0  0  0  0  0  0  0
    2.5701   -0.0112   -0.0679 C   0  0  0  0  0  0  0  0  0  0  0  0
    3.5810   -1.0009    0.5148 C   0  0  0  0  0  0  0  0  0  0  0  0
    3.0418    0.5541   -1.3908 C   0  0  0  0  0  0  0  0  0  0  0  0
    3.2504   -0.3503   -2.3912 N   0  0  0  0  0  0  0  0  0  0  0  0
    3.5512    0.1100   -3.6202 C   0  0  0  0  0  0  0  0  0  0  0  0
    3.7544   -0.7877   -4.6571 C   0  0  0  0  0  0  0  0  0  0  0  0
    4.0213   -0.3424   -5.9527 C   0  0  0  0  0  0  0  0  0  0  0  0
    4.2527   -1.5305   -7.1835 Cl  0  0  0  0  0  0  0  0  0  0  0  0
    4.0859    1.0268   -6.2109 C   0  0  0  0  0  0  0  0  0  0  0  0
    4.3760    1.6634   -7.7892 Cl  0  0  0  0  0  0  0  0  0  0  0  0
    3.9060    1.9351   -5.1672 C   0  0  0  0  0  0  0  0  0  0  0  0
    3.6481    1.4978   -3.8768 C   0  0  0  0  0  0  0  0  0  0  0  0
    3.4866    2.3998   -2.8999 N   0  0  0  0  0  0  0  0  0  0  0  0
    3.1889    1.9044   -1.6657 C   0  0  0  0  0  0  0  0  0  0  0  0
    3.0346    3.1510   -0.4197 S   0  0  0  0  0  0  0  0  0  0  0  0
    3.3702    4.6873   -1.2404 C   0  0  0  0  0  0  0  0  0  0  0  0
    1.6438    3.1736   -0.0039 O   0  0  0  0  0  0  0  0  0  0  0  0
    4.1011    2.9267    0.5397 O   0  0  0  0  0  0  0  0  0  0  0  0
    0.8132   -1.0427    0.7016 H   0  0  0  0  0  0  0  0  0  0  0  0
    1.2687   -1.5462   -0.9323 H   0  0  0  0  0  0  0  0  0  0  0  0
    0.4782    0.0152   -0.6790 H   0  0  0  0  0  0  0  0  0  0  0  0
    2.4386    0.7795    0.6746 H   0  0  0  0  0  0  0  0  0  0  0  0
    3.7362   -1.8631   -0.1427 H   0  0  0  0  0  0  0  0  0  0  0  0
    3.2323   -1.3788    1.4824 H   0  0  0  0  0  0  0  0  0  0  0  0
    4.5520   -0.5194    0.6731 H   0  0  0  0  0  0  0  0  0  0  0  0
    3.6939   -1.8532   -4.4451 H   0  0  0  0  0  0  0  0  0  0  0  0
    3.9577    3.0044   -5.3592 H   0  0  0  0  0  0  0  0  0  0  0  0
    2.6095    4.8601   -2.0041 H   0  0  0  0  0  0  0  0  0  0  0  0
    4.3691    4.6546   -1.6799 H   0  0  0  0  0  0  0  0  0  0  0  0
    3.3272    5.4842   -0.4948 H   0  0  0  0  0  0  0  0  0  0  0  0
  1  2  1  0  0  0  0
  1 20  1  0  0  0  0
  1 21  1  0  0  0  0
  1 22  1  0  0  0  0
  2  3  1  0  0  0  0
  2  4  1  0  0  0  0
  2 23  1  0  0  0  0
  3 24  1  0  0  0  0
  3 25  1  0  0  0  0
  3 26  1  0  0  0  0
  4  5  1  0  0  0  0
  4 15  2  0  0  0  0
  5  6  2  0  0  0  0
  6  7  1  0  0  0  0
  6 13  1  0  0  0  0
  7  8  2  0  0  0  0
  7 27  1  0  0  0  0
  8  9  1  0  0  0  0
  8 10  1  0  0  0  0
 10 11  1  0  0  0  0
 10 12  2  0  0  0  0
 12 13  1  0  0  0  0
 12 28  1  0  0  0  0
 13 14  2  0  0  0  0
 14 15  1  0  0  0  0
 15 16  1  0  0  0  0
 16 17  1  0  0  0  0
 16 18  2  0  0  0  0
 16 19  2  0  0  0  0
 17 29  1  0  0  0  0
 17 30  1  0  0  0  0
 17 31  1  0  0  0  0
M  END
>  <Energy>
114.252

$$$$

 OpenBabel04232614443D

 35 38  0  0  0  0  0  0  0  0999 V2000
    1.4680   -0.4678   -1.6608 C   0  0  0  0  0  0  0  0  0  0  0  0
    0.3546   -0.3381   -0.7008 C   0  0  0  0  0  0  0  0  0  0  0  0
   -0.0667   -1.0917    0.3721 C   0  0  0  0  0  0  0  0  0  0  0  0
   -1.2103   -0.4377    0.8901 C   0  0  0  0  0  0  0  0  0  0  0  0
   -1.4343    0.6728    0.0968 C   0  0  0  0  0  0  0  0  0  0  0  0
   -2.4569    1.7106    0.0930 C   0  0  0  0  0  0  0  0  0  0  0  0
   -3.3567    1.6458    1.0972 N   0  0  0  0  0  0  0  0  0  0  0  0
   -4.3707    2.5271    1.1090 C   0  0  0  0  0  0  0  0  0  0  0  0
   -5.2915    2.4171    2.1400 N   0  0  0  0  0  0  0  0  0  0  0  0
   -4.4615    3.4871    0.0897 C   0  0  0  0  0  0  0  0  0  0  0  0
   -5.3981    4.5359   -0.2003 C   0  0  0  0  0  0  0  0  0  0  0  0
   -5.1068    5.2321   -1.3633 C   0  0  0  0  0  0  0  0  0  0  0  0
   -5.8641    6.3250   -2.0015 C   0  0  0  0  0  0  0  0  0  0  0  0
   -5.2359    7.3121   -2.7796 C   0  0  0  0  0  0  0  0  0  0  0  0
   -5.9754    8.3302   -3.3882 C   0  0  0  0  0  0  0  0  0  0  0  0
   -7.3550    8.3864   -3.2218 C   0  0  0  0  0  0  0  0  0  0  0  0
   -7.9977    7.4239   -2.4471 C   0  0  0  0  0  0  0  0  0  0  0  0
   -7.2578    6.4029   -1.8436 C   0  0  0  0  0  0  0  0  0  0  0  0
   -3.6724    4.6150   -2.0830 S   0  0  0  0  0  0  0  0  0  0  0  0
   -3.4689    3.4429   -0.8712 C   0  0  0  0  0  0  0  0  0  0  0  0
   -2.4388    2.5868   -0.9187 N   0  0  0  0  0  0  0  0  0  0  0  0
   -0.4677    0.7346   -0.8730 O   0  0  0  0  0  0  0  0  0  0  0  0
    2.0748   -1.3514   -1.4393 H   0  0  0  0  0  0  0  0  0  0  0  0
    2.1180    0.4112   -1.6160 H   0  0  0  0  0  0  0  0  0  0  0  0
    1.0857   -0.5649   -2.6815 H   0  0  0  0  0  0  0  0  0  0  0  0
    0.3913   -2.0021    0.7324 H   0  0  0  0  0  0  0  0  0  0  0  0
   -1.8201   -0.7389    1.7314 H   0  0  0  0  0  0  0  0  0  0  0  0
   -4.9312    1.8604    2.9066 H   0  0  0  0  0  0  0  0  0  0  0  0
   -5.7965    3.2561    2.3857 H   0  0  0  0  0  0  0  0  0  0  0  0
   -6.2588    4.7534    0.4197 H   0  0  0  0  0  0  0  0  0  0  0  0
   -4.1580    7.3067   -2.9253 H   0  0  0  0  0  0  0  0  0  0  0  0
   -5.4684    9.0779   -3.9939 H   0  0  0  0  0  0  0  0  0  0  0  0
   -7.9295    9.1775   -3.6967 H   0  0  0  0  0  0  0  0  0  0  0  0
   -9.0762    7.4625   -2.3183 H   0  0  0  0  0  0  0  0  0  0  0  0
   -7.7933    5.6562   -1.2608 H   0  0  0  0  0  0  0  0  0  0  0  0
  1  2  1  0  0  0  0
  1 23  1  0  0  0  0
  1 24  1  0  0  0  0
  1 25  1  0  0  0  0
  2  3  2  0  0  0  0
  2 22  1  0  0  0  0
  3  4  1  0  0  0  0
  3 26  1  0  0  0  0
  4  5  2  0  0  0  0
  4 27  1  0  0  0  0
  5  6  1  0  0  0  0
  5 22  1  0  0  0  0
  6  7  1  0  0  0  0
  6 21  2  0  0  0  0
  7  8  2  0  0  0  0
  8  9  1  0  0  0  0
  8 10  1  0  0  0  0
  9 28  1  0  0  0  0
  9 29  1  0  0  0  0
 10 11  1  0  0  0  0
 10 20  2  0  0  0  0
 11 12  2  0  0  0  0
 11 30  1  0  0  0  0
 12 13  1  0  0  0  0
 12 19  1  0  0  0  0
 13 14  1  0  0  0  0
 13 18  2  0  0  0  0
 14 15  2  0  0  0  0
 14 31  1  0  0  0  0
 15 16  1  0  0  0  0
 15 32  1  0  0  0  0
 16 17  2  0  0  0  0
 16 33  1  0  0  0  0
 17 18  1  0  0  0  0
 17 34  1  0  0  0  0
 18 35  1  0  0  0  0
 19 20  1  0  0  0  0
 20 21  1  0  0  0  0
M  END
>  <Energy>
3.31433

$$$$

 OpenBabel04232614443D

 33 36  0  0  0  0  0  0  0  0999 V2000
   -1.9184    0.1504   -0.8985 Cl  0  0  0  0  0  0  0  0  0  0  0  0
   -0.2398    0.0379   -0.4805 C   0  0  0  0  0  0  0  0  0  0  0  0
    0.4735    1.2446   -0.4588 C   0  0  0  0  0  0  0  0  0  0  0  0
    1.8064    1.2676   -0.0577 C   0  0  0  0  0  0  0  0  0  0  0  0
    2.4392    0.0813    0.2931 C   0  0  0  0  0  0  0  0  0  0  0  0
    1.7418   -1.1292    0.2344 C   0  0  0  0  0  0  0  0  0  0  0  0
    0.3783   -1.1829   -0.1267 C   0  0  0  0  0  0  0  0  0  0  0  0
   -0.3338   -2.4870   -0.0977 C   0  0  0  0  0  0  0  0  0  0  0  0
   -0.9827   -2.9454   -1.2634 C   0  0  0  0  0  0  0  0  0  0  0  0
   -1.6385   -4.1803   -1.3107 C   0  0  0  0  0  0  0  0  0  0  0  0
   -1.6361   -5.0121   -0.1991 C   0  0  0  0  0  0  0  0  0  0  0  0
   -0.9869   -4.6058    0.9613 C   0  0  0  0  0  0  0  0  0  0  0  0
   -0.3524   -3.3491    1.0285 C   0  0  0  0  0  0  0  0  0  0  0  0
    0.3355   -3.0500    2.3203 C   0  0  0  0  0  0  0  0  0  0  0  0
    0.0342   -1.7237    2.9569 C   0  0  0  0  0  0  0  0  0  0  0  0
    0.7097   -1.4583    4.0840 C   0  0  0  0  0  0  0  0  0  0  0  0
    1.5722   -2.4086    4.6146 N   0  0  0  0  0  0  0  0  0  0  0  0
    2.3202   -2.3458    5.7426 N   0  0  0  0  0  0  0  0  0  0  0  0
    2.8906   -3.5520    5.7565 C   0  0  0  0  0  0  0  0  0  0  0  0
    2.5812   -4.3716    4.7160 N   0  0  0  0  0  0  0  0  0  0  0  0
    1.7552   -3.6476    3.9944 C   0  0  0  0  0  0  0  0  0  0  0  0
    1.1309   -3.9550    2.8194 N   0  0  0  0  0  0  0  0  0  0  0  0
   -0.0136    2.1757   -0.7399 H   0  0  0  0  0  0  0  0  0  0  0  0
    2.3482    2.2095   -0.0182 H   0  0  0  0  0  0  0  0  0  0  0  0
    3.4781    0.0923    0.6153 H   0  0  0  0  0  0  0  0  0  0  0  0
    2.2756   -2.0420    0.5002 H   0  0  0  0  0  0  0  0  0  0  0  0
   -0.9769   -2.3391   -2.1678 H   0  0  0  0  0  0  0  0  0  0  0  0
   -2.1387   -4.4937   -2.2246 H   0  0  0  0  0  0  0  0  0  0  0  0
   -2.1251   -5.9820   -0.2392 H   0  0  0  0  0  0  0  0  0  0  0  0
   -0.9645   -5.2757    1.8200 H   0  0  0  0  0  0  0  0  0  0  0  0
   -0.6698   -1.0330    2.5122 H   0  0  0  0  0  0  0  0  0  0  0  0
    0.6213   -0.5334    4.6359 H   0  0  0  0  0  0  0  0  0  0  0  0
    3.5587   -3.8442    6.5563 H   0  0  0  0  0  0  0  0  0  0  0  0
  1  2  1  0  0  0  0
  2  3  1  0  0  0  0
  2  7  2  0  0  0  0
  3  4  2  0  0  0  0
  3 23  1  0  0  0  0
  4  5  1  0  0  0  0
  4 24  1  0  0  0  0
  5  6  2  0  0  0  0
  5 25  1  0  0  0  0
  6  7  1  0  0  0  0
  6 26  1  0  0  0  0
  7  8  1  0  0  0  0
  8  9  1  0  0  0  0
  8 13  2  0  0  0  0
  9 10  2  0  0  0  0
  9 27  1  0  0  0  0
 10 11  1  0  0  0  0
 10 28  1  0  0  0  0
 11 12  2  0  0  0  0
 11 29  1  0  0  0  0
 12 13  1  0  0  0  0
 12 30  1  0  0  0  0
 13 14  1  0  0  0  0
 14 15  1  0  0  0  0
 14 22  2  0  0  0  0
 15 16  2  0  0  0  0
 15 31  1  0  0  0  0
 16 17  1  0  0  0  0
 16 32  1  0  0  0  0
 17 18  1  0  0  0  0
 17 21  1  0  0  0  0
 18 19  2  0  0  0  0
 19 20  1  0  0  0  0
 19 33  1  0  0  0  0
 20 21  2  0  0  0  0
 21 22  1  0  0  0  0
M  END
>  <Energy>
103.254

$$$$

 OpenBabel04232614443D

 41 44  0  0  0  0  0  0  0  0999 V2000
    6.9571   -1.7347   -3.5436 N   0  0  0  0  0  0  0  0  0  0  0  0
    6.5924   -0.7845   -2.9845 C   0  0  0  0  0  0  0  0  0  0  0  0
    6.1954    0.4206   -2.3189 C   0  0  0  0  0  0  0  0  0  0  0  0
    6.6967    0.8580   -1.1129 C   0  0  0  0  0  0  0  0  0  0  0  0
    6.0641    2.0436   -0.7820 N   0  0  0  0  0  0  0  0  0  0  0  0
    6.3991    2.7279    0.4696 C   0  0  0  0  0  0  0  0  0  0  0  0
    5.8159    4.0973    0.7464 C   0  0  0  0  0  0  0  0  0  0  0  0
    4.8563    4.2042    1.5126 O   0  0  0  0  0  0  0  0  0  0  0  0
    6.4105    5.2196    0.1847 N   0  0  0  0  0  0  0  0  0  0  0  0
    5.9660    6.5531    0.6382 C   0  0  0  0  0  0  0  0  0  0  0  0
    6.4141    7.6998   -0.2909 C   0  0  0  0  0  0  0  0  0  0  0  0
    7.9188    7.6166   -0.3927 C   0  0  0  0  0  0  0  0  0  0  0  0
    8.7502    8.7217   -0.2195 C   0  0  0  0  0  0  0  0  0  0  0  0
   10.1184    8.5213   -0.0392 C   0  0  0  0  0  0  0  0  0  0  0  0
   10.6498    7.2286   -0.0463 C   0  0  0  0  0  0  0  0  0  0  0  0
    9.8319    6.1306   -0.3131 C   0  0  0  0  0  0  0  0  0  0  0  0
    8.4670    6.3243   -0.5168 C   0  0  0  0  0  0  0  0  0  0  0  0
    7.5099    5.1907   -0.7824 C   0  0  0  0  0  0  0  0  0  0  0  0
    5.1396    2.3635   -1.7592 C   0  0  0  0  0  0  0  0  0  0  0  0
    4.2203    3.4211   -1.8891 C   0  0  0  0  0  0  0  0  0  0  0  0
    3.4120    3.4736   -3.0305 C   0  0  0  0  0  0  0  0  0  0  0  0
    3.4949    2.5012   -4.0169 C   0  0  0  0  0  0  0  0  0  0  0  0
    4.3910    1.4390   -3.8851 C   0  0  0  0  0  0  0  0  0  0  0  0
    5.2299    1.3638   -2.7485 C   0  0  0  0  0  0  0  0  0  0  0  0
    7.4360    0.4227   -0.4547 H   0  0  0  0  0  0  0  0  0  0  0  0
    7.4932    2.7692    0.5416 H   0  0  0  0  0  0  0  0  0  0  0  0
    6.0704    2.0582    1.2709 H   0  0  0  0  0  0  0  0  0  0  0  0
    6.4200    6.6955    1.6307 H   0  0  0  0  0  0  0  0  0  0  0  0
    4.8809    6.5644    0.7808 H   0  0  0  0  0  0  0  0  0  0  0  0
    5.9626    7.5975   -1.2843 H   0  0  0  0  0  0  0  0  0  0  0  0
    6.1040    8.6619    0.1316 H   0  0  0  0  0  0  0  0  0  0  0  0
    8.3396    9.7263   -0.1632 H   0  0  0  0  0  0  0  0  0  0  0  0
   10.7688    9.3713    0.1506 H   0  0  0  0  0  0  0  0  0  0  0  0
   11.7052    7.0774    0.1659 H   0  0  0  0  0  0  0  0  0  0  0  0
   10.2574    5.1309   -0.3168 H   0  0  0  0  0  0  0  0  0  0  0  0
    8.0268    4.2314   -0.8064 H   0  0  0  0  0  0  0  0  0  0  0  0
    7.0615    5.3302   -1.7753 H   0  0  0  0  0  0  0  0  0  0  0  0
    4.1058    4.1882   -1.1341 H   0  0  0  0  0  0  0  0  0  0  0  0
    2.6969    4.2900   -3.1361 H   0  0  0  0  0  0  0  0  0  0  0  0
    2.8542    2.5593   -4.8934 H   0  0  0  0  0  0  0  0  0  0  0  0
    4.4378    0.6775   -4.6547 H   0  0  0  0  0  0  0  0  0  0  0  0
  1  2  3  0  0  0  0
  2  3  1  0  0  0  0
  3  4  2  0  0  0  0
  3 24  1  0  0  0  0
  4  5  1  0  0  0  0
  4 25  1  0  0  0  0
  5  6  1  0  0  0  0
  5 19  1  0  0  0  0
  6  7  1  0  0  0  0
  6 26  1  0  0  0  0
  6 27  1  0  0  0  0
  7  8  2  0  0  0  0
  7  9  1  0  0  0  0
  9 10  1  0  0  0  0
  9 18  1  0  0  0  0
 10 11  1  0  0  0  0
 10 28  1  0  0  0  0
 10 29  1  0  0  0  0
 11 12  1  0  0  0  0
 11 30  1  0  0  0  0
 11 31  1  0  0  0  0
 12 13  1  0  0  0  0
 12 17  2  0  0  0  0
 13 14  2  0  0  0  0
 13 32  1  0  0  0  0
 14 15  1  0  0  0  0
 14 33  1  0  0  0  0
 15 16  2  0  0  0  0
 15 34  1  0  0  0  0
 16 17  1  0  0  0  0
 16 35  1  0  0  0  0
 17 18  1  0  0  0  0
 18 36  1  0  0  0  0
 18 37  1  0  0  0  0
 19 20  1  0  0  0  0
 19 24  2  0  0  0  0
 20 21  2  0  0  0  0
 20 38  1  0  0  0  0
 21 22  1  0  0  0  0
 21 39  1  0  0  0  0
 22 23  2  0  0  0  0
 22 40  1  0  0  0  0
 23 24  1  0  0  0  0
 23 41  1  0  0  0  0
M  END
>  <Energy>
78.3249

$$$$

 OpenBabel04232614443D

 47 50  0  0  1  0  0  0  0  0999 V2000
   -2.1095   -0.1607    0.6876 C   0  0  0  0  0  0  0  0  0  0  0  0
   -0.6884   -0.1480    0.4273 N   0  0  0  0  0  0  0  0  0  0  0  0
   -0.0215    1.0201    0.5359 N   0  0  0  0  0  0  0  0  0  0  0  0
    1.2404    0.7444    0.1746 C   0  0  0  0  0  0  0  0  0  0  0  0
    2.2567    1.7909   -0.0117 C   0  0  0  0  0  0  0  0  0  0  0  0
    1.9109    3.1481    0.0836 C   0  0  0  0  0  0  0  0  0  0  0  0
    2.8493    4.1487   -0.1901 C   0  0  0  0  0  0  0  0  0  0  0  0
    4.1484    3.8072   -0.5589 C   0  0  0  0  0  0  0  0  0  0  0  0
    4.5128    2.4668   -0.6446 C   0  0  0  0  0  0  0  0  0  0  0  0
    3.5748    1.4665   -0.3700 C   0  0  0  0  0  0  0  0  0  0  0  0
    1.3717   -0.6447   -0.0893 C   0  0  0  0  0  0  0  0  0  0  0  0
    0.0953   -1.1710   -0.0436 C   0  0  0  0  0  0  0  0  0  0  0  0
   -0.3678   -2.4761   -0.5804 C   0  0  3  0  0  0  0  0  0  0  0  0
   -0.9081   -2.3373   -1.9936 C   0  0  0  0  0  0  0  0  0  0  0  0
   -2.0550   -3.1799   -2.0714 O   0  0  0  0  0  0  0  0  0  0  0  0
   -2.1970   -3.7895   -0.7728 C   0  0  0  0  0  0  0  0  0  0  0  0
   -1.6413   -5.2185   -0.9469 C   0  0  0  0  0  0  0  0  0  0  0  0
   -1.5970   -6.1213    0.2761 C   0  0  0  0  0  0  0  0  0  0  0  0
   -2.9404   -6.3286    0.9656 C   0  0  0  0  0  0  0  0  0  0  0  0
   -3.3564   -5.1126    1.7811 C   0  0  0  0  0  0  0  0  0  0  0  0
   -4.1015   -4.0329    1.0054 C   0  0  0  0  0  0  0  0  0  0  0  0
   -3.6905   -3.7746   -0.4414 C   0  0  0  0  0  0  0  0  0  0  0  0
   -1.4535   -3.0115    0.1747 O   0  0  0  0  0  0  0  0  0  0  0  0
   -2.4236    0.8259    1.0402 H   0  0  0  0  0  0  0  0  0  0  0  0
   -2.3162   -0.9031    1.4622 H   0  0  0  0  0  0  0  0  0  0  0  0
   -2.6324   -0.4014   -0.2401 H   0  0  0  0  0  0  0  0  0  0  0  0
    0.8952    3.4352    0.3495 H   0  0  0  0  0  0  0  0  0  0  0  0
    2.5586    5.1943   -0.1270 H   0  0  0  0  0  0  0  0  0  0  0  0
    4.8742    4.5846   -0.7829 H   0  0  0  0  0  0  0  0  0  0  0  0
    5.5245    2.1957   -0.9360 H   0  0  0  0  0  0  0  0  0  0  0  0
    3.8932    0.4322   -0.4593 H   0  0  0  0  0  0  0  0  0  0  0  0
    2.2530   -1.1684   -0.4284 H   0  0  0  0  0  0  0  0  0  0  0  0
    0.4528   -3.2027   -0.5453 H   0  0  0  0  0  0  0  0  0  0  0  0
   -0.1681   -2.6441   -2.7399 H   0  0  0  0  0  0  0  0  0  0  0  0
   -1.2257   -1.3189   -2.2408 H   0  0  0  0  0  0  0  0  0  0  0  0
   -0.6166   -5.1612   -1.3387 H   0  0  0  0  0  0  0  0  0  0  0  0
   -2.2097   -5.7227   -1.7411 H   0  0  0  0  0  0  0  0  0  0  0  0
   -0.8569   -5.7437    0.9916 H   0  0  0  0  0  0  0  0  0  0  0  0
   -1.2283   -7.1022   -0.0503 H   0  0  0  0  0  0  0  0  0  0  0  0
   -2.8288   -7.1756    1.6543 H   0  0  0  0  0  0  0  0  0  0  0  0
   -3.7170   -6.6148    0.2464 H   0  0  0  0  0  0  0  0  0  0  0  0
   -2.4781   -4.6725    2.2693 H   0  0  0  0  0  0  0  0  0  0  0  0
   -4.0097   -5.4461    2.5980 H   0  0  0  0  0  0  0  0  0  0  0  0
   -4.0274   -3.0967    1.5734 H   0  0  0  0  0  0  0  0  0  0  0  0
   -5.1701   -4.2857    1.0015 H   0  0  0  0  0  0  0  0  0  0  0  0
   -4.1011   -2.7927   -0.7167 H   0  0  0  0  0  0  0  0  0  0  0  0
   -4.2119   -4.4804   -1.1017 H   0  0  0  0  0  0  0  0  0  0  0  0
  1  2  1  0  0  0  0
  1 24  1  0  0  0  0
  1 25  1  0  0  0  0
  1 26  1  0  0  0  0
  2  3  1  0  0  0  0
  2 12  1  0  0  0  0
  3  4  2  0  0  0  0
  4  5  1  0  0  0  0
  4 11  1  0  0  0  0
  5  6  1  0  0  0  0
  5 10  2  0  0  0  0
  6  7  2  0  0  0  0
  6 27  1  0  0  0  0
  7  8  1  0  0  0  0
  7 28  1  0  0  0  0
  8  9  2  0  0  0  0
  8 29  1  0  0  0  0
  9 10  1  0  0  0  0
  9 30  1  0  0  0  0
 10 31  1  0  0  0  0
 11 12  2  0  0  0  0
 11 32  1  0  0  0  0
 12 13  1  0  0  0  0
 13 14  1  0  0  0  0
 13 23  1  0  0  0  0
 13 33  1  0  0  0  0
 14 15  1  0  0  0  0
 14 34  1  0  0  0  0
 14 35  1  0  0  0  0
 15 16  1  0  0  0  0
 16 17  1  0  0  0  0
 16 22  1  0  0  0  0
 16 23  1  0  0  0  0
 17 18  1  0  0  0  0
 17 36  1  0  0  0  0
 17 37  1  0  0  0  0
 18 19  1  0  0  0  0
 18 38  1  0  0  0  0
 18 39  1  0  0  0  0
 19 20  1  0  0  0  0
 19 40  1  0  0  0  0
 19 41  1  0  0  0  0
 20 21  1  0  0  0  0
 20 42  1  0  0  0  0
 20 43  1  0  0  0  0
 21 22  1  0  0  0  0
 21 44  1  0  0  0  0
 21 45  1  0  0  0  0
 22 46  1  0  0  0  0
 22 47  1  0  0  0  0
M  END
>  <Energy>
61.9291

$$$$

 OpenBabel04232614443D

 41 44  0  0  0  0  0  0  0  0999 V2000
    3.0475   -2.5541   -0.7678 C   0  0  0  0  0  0  0  0  0  0  0  0
    2.7195   -1.0814   -0.6198 C   0  0  0  0  0  0  0  0  0  0  0  0
    3.0479   -0.4966    0.6889 N   0  0  0  0  0  0  0  0  0  0  0  0
    2.1205    0.4155    1.0835 N   0  0  0  0  0  0  0  0  0  0  0  0
    2.4102    1.6731    1.0945 C   0  0  0  0  0  0  0  0  0  0  0  0
    1.2498    2.6169    1.3206 C   0  0  0  0  0  0  0  0  0  0  0  0
    3.7089    2.3300    0.8021 C   0  0  0  0  0  0  0  0  0  0  0  0
    4.9326    1.7934    0.9307 C   0  0  0  0  0  0  0  0  0  0  0  0
    5.9970    2.7826    0.6713 C   0  0  0  0  0  0  0  0  0  0  0  0
    6.4381    3.6426    1.6876 C   0  0  0  0  0  0  0  0  0  0  0  0
    7.3865    4.6276    1.4076 C   0  0  0  0  0  0  0  0  0  0  0  0
    7.8797    4.7716    0.1119 C   0  0  0  0  0  0  0  0  0  0  0  0
    7.4390    3.9250   -0.9064 C   0  0  0  0  0  0  0  0  0  0  0  0
    6.5001    2.9328   -0.6286 C   0  0  0  0  0  0  0  0  0  0  0  0
    5.2177    0.4387    1.2423 N   0  0  0  0  0  0  0  0  0  0  0  0
    4.3209   -0.6373    1.1604 C   0  0  0  0  0  0  0  0  0  0  0  0
    4.9023   -1.7842    1.4427 N   0  0  0  0  0  0  0  0  0  0  0  0
    6.1971   -1.4948    1.7310 C   0  0  0  0  0  0  0  0  0  0  0  0
    7.2248   -2.3786    2.1036 C   0  0  0  0  0  0  0  0  0  0  0  0
    8.5108   -1.8776    2.3238 C   0  0  0  0  0  0  0  0  0  0  0  0
    8.7659   -0.5194    2.1711 C   0  0  0  0  0  0  0  0  0  0  0  0
    7.7488    0.3737    1.8087 C   0  0  0  0  0  0  0  0  0  0  0  0
    6.4542   -0.1349    1.5907 C   0  0  0  0  0  0  0  0  0  0  0  0
    2.4737   -2.9744   -1.6005 H   0  0  0  0  0  0  0  0  0  0  0  0
    2.8076   -3.1215    0.1353 H   0  0  0  0  0  0  0  0  0  0  0  0
    4.1075   -2.6932   -1.0022 H   0  0  0  0  0  0  0  0  0  0  0  0
    1.6408   -0.9650   -0.7970 H   0  0  0  0  0  0  0  0  0  0  0  0
    3.2213   -0.5016   -1.4050 H   0  0  0  0  0  0  0  0  0  0  0  0
    0.3719    2.0741    1.6826 H   0  0  0  0  0  0  0  0  0  0  0  0
    0.9933    3.0895    0.3646 H   0  0  0  0  0  0  0  0  0  0  0  0
    1.5177    3.3902    2.0459 H   0  0  0  0  0  0  0  0  0  0  0  0
    3.6008    3.3819    0.5359 H   0  0  0  0  0  0  0  0  0  0  0  0
    6.0544    3.5425    2.7000 H   0  0  0  0  0  0  0  0  0  0  0  0
    7.7342    5.2869    2.1991 H   0  0  0  0  0  0  0  0  0  0  0  0
    8.6090    5.5480   -0.1078 H   0  0  0  0  0  0  0  0  0  0  0  0
    7.8167    4.0475   -1.9172 H   0  0  0  0  0  0  0  0  0  0  0  0
    6.1539    2.2859   -1.4324 H   0  0  0  0  0  0  0  0  0  0  0  0
    7.0108   -3.4364    2.2151 H   0  0  0  0  0  0  0  0  0  0  0  0
    9.3111   -2.5552    2.6091 H   0  0  0  0  0  0  0  0  0  0  0  0
    9.7724   -0.1413    2.3399 H   0  0  0  0  0  0  0  0  0  0  0  0
    7.9892    1.4245    1.7088 H   0  0  0  0  0  0  0  0  0  0  0  0
  1  2  1  0  0  0  0
  1 24  1  0  0  0  0
  1 25  1  0  0  0  0
  1 26  1  0  0  0  0
  2  3  1  0  0  0  0
  2 27  1  0  0  0  0
  2 28  1  0  0  0  0
  3  4  1  0  0  0  0
  3 16  1  0  0  0  0
  4  5  2  0  0  0  0
  5  6  1  0  0  0  0
  5  7  1  0  0  0  0
  6 29  1  0  0  0  0
  6 30  1  0  0  0  0
  6 31  1  0  0  0  0
  7  8  2  0  0  0  0
  7 32  1  0  0  0  0
  8  9  1  0  0  0  0
  8 15  1  0  0  0  0
  9 10  1  0  0  0  0
  9 14  2  0  0  0  0
 10 11  2  0  0  0  0
 10 33  1  0  0  0  0
 11 12  1  0  0  0  0
 11 34  1  0  0  0  0
 12 13  2  0  0  0  0
 12 35  1  0  0  0  0
 13 14  1  0  0  0  0
 13 36  1  0  0  0  0
 14 37  1  0  0  0  0
 15 16  1  0  0  0  0
 15 23  1  0  0  0  0
 16 17  2  0  0  0  0
 17 18  1  0  0  0  0
 18 19  1  0  0  0  0
 18 23  2  0  0  0  0
 19 20  2  0  0  0  0
 19 38  1  0  0  0  0
 20 21  1  0  0  0  0
 20 39  1  0  0  0  0
 21 22  2  0  0  0  0
 21 40  1  0  0  0  0
 22 23  1  0  0  0  0
 22 41  1  0  0  0  0
M  END
>  <Energy>
107.925

$$$$

 OpenBabel04232614443D

 36 39  0  0  0  0  0  0  0  0999 V2000
    0.9627    0.4416   -0.2952 O   0  0  0  0  0  0  0  0  0  0  0  0
    2.1753    0.3510   -0.1660 C   0  0  0  0  0  0  0  0  0  0  0  0
    3.0140    1.5487   -0.0289 C   0  0  0  0  0  0  0  0  0  0  0  0
    4.3333    1.4355    0.1206 C   0  0  0  0  0  0  0  0  0  0  0  0
    5.0051    0.1165    0.1463 C   0  0  0  0  0  0  0  0  0  0  0  0
    6.2961    0.1047    0.2201 N   0  0  0  0  0  0  0  0  0  0  0  0
    6.9175   -1.1199    0.1769 C   0  0  0  0  0  0  0  0  0  0  0  0
    8.4152   -1.0866    0.1505 C   0  0  0  0  0  0  0  0  0  0  0  0
    9.1061    0.1337    0.1435 C   0  0  0  0  0  0  0  0  0  0  0  0
   10.5014    0.1550    0.0787 C   0  0  0  0  0  0  0  0  0  0  0  0
   11.2153   -1.0410    0.0229 C   0  0  0  0  0  0  0  0  0  0  0  0
   10.5376   -2.2595    0.0380 C   0  0  0  0  0  0  0  0  0  0  0  0
    9.1414   -2.2840    0.1024 C   0  0  0  0  0  0  0  0  0  0  0  0
    6.2958   -2.2590    0.1304 N   0  0  0  0  0  0  0  0  0  0  0  0
    4.9201   -2.2881    0.1214 N   0  0  0  0  0  0  0  0  0  0  0  0
    4.3841   -3.6134    0.0152 C   0  0  0  0  0  0  0  0  0  0  0  0
    3.1920   -4.0029    0.6483 C   0  0  0  0  0  0  0  0  0  0  0  0
    2.6520   -5.2807    0.4603 C   0  0  0  0  0  0  0  0  0  0  0  0
    3.3167   -6.2108   -0.3334 C   0  0  0  0  0  0  0  0  0  0  0  0
    4.5318   -5.8728   -0.9197 C   0  0  0  0  0  0  0  0  0  0  0  0
    5.0599   -4.5910   -0.7413 C   0  0  0  0  0  0  0  0  0  0  0  0
    4.1648   -1.1173    0.0563 C   0  0  0  0  0  0  0  0  0  0  0  0
    2.8450   -0.9588   -0.1309 C   0  0  0  0  0  0  0  0  0  0  0  0
    2.5117    2.5065   -0.0658 H   0  0  0  0  0  0  0  0  0  0  0  0
    4.9705    2.3088    0.2038 H   0  0  0  0  0  0  0  0  0  0  0  0
    8.5665    1.0769    0.1799 H   0  0  0  0  0  0  0  0  0  0  0  0
   11.0297    1.1051    0.0670 H   0  0  0  0  0  0  0  0  0  0  0  0
   12.3011   -1.0236   -0.0334 H   0  0  0  0  0  0  0  0  0  0  0  0
   11.0946   -3.1921   -0.0048 H   0  0  0  0  0  0  0  0  0  0  0  0
    8.6282   -3.2426    0.1094 H   0  0  0  0  0  0  0  0  0  0  0  0
    2.6716   -3.3226    1.3164 H   0  0  0  0  0  0  0  0  0  0  0  0
    1.7133   -5.5486    0.9387 H   0  0  0  0  0  0  0  0  0  0  0  0
    2.8951   -7.2011   -0.4850 H   0  0  0  0  0  0  0  0  0  0  0  0
    5.0684   -6.5991   -1.5242 H   0  0  0  0  0  0  0  0  0  0  0  0
    6.0030   -4.3437   -1.2237 H   0  0  0  0  0  0  0  0  0  0  0  0
    2.1687   -1.7905   -0.2744 H   0  0  0  0  0  0  0  0  0  0  0  0
  1  2  2  0  0  0  0
  2  3  1  0  0  0  0
  2 23  1  0  0  0  0
  3  4  2  0  0  0  0
  3 24  1  0  0  0  0
  4  5  1  0  0  0  0
  4 25  1  0  0  0  0
  5  6  2  0  0  0  0
  5 22  1  0  0  0  0
  6  7  1  0  0  0  0
  7  8  1  0  0  0  0
  7 14  2  0  0  0  0
  8  9  1  0  0  0  0
  8 13  2  0  0  0  0
  9 10  2  0  0  0  0
  9 26  1  0  0  0  0
 10 11  1  0  0  0  0
 10 27  1  0  0  0  0
 11 12  2  0  0  0  0
 11 28  1  0  0  0  0
 12 13  1  0  0  0  0
 12 29  1  0  0  0  0
 13 30  1  0  0  0  0
 14 15  1  0  0  0  0
 15 16  1  0  0  0  0
 15 22  1  0  0  0  0
 16 17  1  0  0  0  0
 16 21  2  0  0  0  0
 17 18  2  0  0  0  0
 17 31  1  0  0  0  0
 18 19  1  0  0  0  0
 18 32  1  0  0  0  0
 19 20  2  0  0  0  0
 19 33  1  0  0  0  0
 20 21  1  0  0  0  0
 20 34  1  0  0  0  0
 21 35  1  0  0  0  0
 22 23  2  0  0  0  0
 23 36  1  0  0  0  0
M  END
>  <Energy>
71.3984

$$$$

 OpenBabel04232614443D

 40 43  0  0  0  0  0  0  0  0999 V2000
    1.2202   -0.5722    0.0296 C   0  0  0  0  0  0  0  0  0  0  0  0
    2.6903   -0.2804   -0.0385 C   0  0  0  0  0  0  0  0  0  0  0  0
    3.1668    1.0082    0.1964 C   0  0  0  0  0  0  0  0  0  0  0  0
    4.5345    1.2577    0.1553 C   0  0  0  0  0  0  0  0  0  0  0  0
    5.4383    0.2215   -0.1169 C   0  0  0  0  0  0  0  0  0  0  0  0
    6.8119    0.4846   -0.1476 C   0  0  0  0  0  0  0  0  0  0  0  0
    7.6681   -0.5821   -0.4296 C   0  0  0  0  0  0  0  0  0  0  0  0
    9.0613   -0.7531   -0.5430 C   0  0  0  0  0  0  0  0  0  0  0  0
    9.2917   -2.0800   -0.8718 C   0  0  0  0  0  0  0  0  0  0  0  0
   10.5986   -2.7093   -1.0649 C   0  0  0  0  0  0  0  0  0  0  0  0
   11.5702   -2.0978   -0.6100 O   0  0  0  0  0  0  0  0  0  0  0  0
   10.7517   -3.8994   -1.8271 N   0  0  0  0  0  0  0  0  0  0  0  0
    9.6110   -4.5906   -2.4263 C   0  0  0  0  0  0  0  0  0  0  0  0
   12.0750   -4.3326   -2.2434 C   0  0  0  0  0  0  0  0  0  0  0  0
   13.2215   -4.0871   -1.4701 C   0  0  0  0  0  0  0  0  0  0  0  0
   14.5018   -4.4406   -1.9146 C   0  0  0  0  0  0  0  0  0  0  0  0
   14.6652   -5.0750   -3.1388 C   0  0  0  0  0  0  0  0  0  0  0  0
   13.5462   -5.3663   -3.9101 C   0  0  0  0  0  0  0  0  0  0  0  0
   12.2675   -5.0016   -3.4663 C   0  0  0  0  0  0  0  0  0  0  0  0
    8.0917   -2.7351   -0.9425 O   0  0  0  0  0  0  0  0  0  0  0  0
    7.1038   -1.8284   -0.6666 C   0  0  0  0  0  0  0  0  0  0  0  0
    5.7949   -2.1353   -0.6408 N   0  0  0  0  0  0  0  0  0  0  0  0
    4.9835   -1.0986   -0.3610 C   0  0  0  0  0  0  0  0  0  0  0  0
    3.6097   -1.3127   -0.3038 C   0  0  0  0  0  0  0  0  0  0  0  0
    0.6301    0.3507    0.0068 H   0  0  0  0  0  0  0  0  0  0  0  0
    0.9860   -1.1056    0.9558 H   0  0  0  0  0  0  0  0  0  0  0  0
    0.9104   -1.1791   -0.8268 H   0  0  0  0  0  0  0  0  0  0  0  0
    2.4815    1.8245    0.4133 H   0  0  0  0  0  0  0  0  0  0  0  0
    4.8900    2.2695    0.3405 H   0  0  0  0  0  0  0  0  0  0  0  0
    7.2091    1.4767    0.0399 H   0  0  0  0  0  0  0  0  0  0  0  0
    9.8339   -0.0070   -0.4102 H   0  0  0  0  0  0  0  0  0  0  0  0
    8.7873   -4.6740   -1.7185 H   0  0  0  0  0  0  0  0  0  0  0  0
    9.8639   -5.6250   -2.6814 H   0  0  0  0  0  0  0  0  0  0  0  0
    9.2883   -4.0458   -3.3184 H   0  0  0  0  0  0  0  0  0  0  0  0
   13.1559   -3.6270   -0.4881 H   0  0  0  0  0  0  0  0  0  0  0  0
   15.3669   -4.2114   -1.2973 H   0  0  0  0  0  0  0  0  0  0  0  0
   15.6592   -5.3393   -3.4889 H   0  0  0  0  0  0  0  0  0  0  0  0
   13.6656   -5.8623   -4.8698 H   0  0  0  0  0  0  0  0  0  0  0  0
   11.4384   -5.2135   -4.1346 H   0  0  0  0  0  0  0  0  0  0  0  0
    3.2407   -2.3232   -0.4737 H   0  0  0  0  0  0  0  0  0  0  0  0
  1  2  1  0  0  0  0
  1 25  1  0  0  0  0
  1 26  1  0  0  0  0
  1 27  1  0  0  0  0
  2  3  1  0  0  0  0
  2 24  2  0  0  0  0
  3  4  2  0  0  0  0
  3 28  1  0  0  0  0
  4  5  1  0  0  0  0
  4 29  1  0  0  0  0
  5  6  1  0  0  0  0
  5 23  2  0  0  0  0
  6  7  2  0  0  0  0
  6 30  1  0  0  0  0
  7  8  1  0  0  0  0
  7 21  1  0  0  0  0
  8  9  2  0  0  0  0
  8 31  1  0  0  0  0
  9 10  1  0  0  0  0
  9 20  1  0  0  0  0
 10 11  2  0  0  0  0
 10 12  1  0  0  0  0
 12 13  1  0  0  0  0
 12 14  1  0  0  0  0
 13 32  1  0  0  0  0
 13 33  1  0  0  0  0
 13 34  1  0  0  0  0
 14 15  1  0  0  0  0
 14 19  2  0  0  0  0
 15 16  2  0  0  0  0
 15 35  1  0  0  0  0
 16 17  1  0  0  0  0
 16 36  1  0  0  0  0
 17 18  2  0  0  0  0
 17 37  1  0  0  0  0
 18 19  1  0  0  0  0
 18 38  1  0  0  0  0
 19 39  1  0  0  0  0
 20 21  1  0  0  0  0
 21 22  2  0  0  0  0
 22 23  1  0  0  0  0
 23 24  1  0  0  0  0
 24 40  1  0  0  0  0
M  END
>  <Energy>
74.2717

$$$$

 OpenBabel04232614443D

 28 30  0  0  0  0  0  0  0  0999 V2000
    1.1344   -0.1006   -0.1150 O   0  5  0  0  0  0  0  0  0  0  0  0
    2.3764    0.0551   -0.0553 N   0  3  0  0  0  0  0  0  0  0  0  0
    3.1610   -1.1398   -0.0406 O   0  0  0  0  0  0  0  0  0  0  0  0
    4.4935   -0.7719    0.0141 N   0  0  0  0  0  0  0  0  0  0  0  0
    4.5305    0.5674    0.0447 C   0  0  0  0  0  0  0  0  0  0  0  0
    5.8204    1.2607    0.1084 C   0  0  0  0  0  0  0  0  0  0  0  0
    6.9187    0.7635   -0.6118 C   0  0  0  0  0  0  0  0  0  0  0  0
    8.1406    1.4434   -0.6103 C   0  0  0  0  0  0  0  0  0  0  0  0
    8.2734    2.6250    0.1139 C   0  0  0  0  0  0  0  0  0  0  0  0
    9.7642    3.4814    0.0894 Cl  0  0  0  0  0  0  0  0  0  0  0  0
    7.2032    3.1182    0.8562 C   0  0  0  0  0  0  0  0  0  0  0  0
    5.9850    2.4307    0.8650 C   0  0  0  0  0  0  0  0  0  0  0  0
    3.2088    1.1099   -0.0101 C   0  0  0  0  0  0  0  0  0  0  0  0
    2.7153    2.4781   -0.0460 C   0  0  0  0  0  0  0  0  0  0  0  0
    3.3551    3.4417   -0.8402 C   0  0  0  0  0  0  0  0  0  0  0  0
    2.9380    4.7764   -0.8148 C   0  0  0  0  0  0  0  0  0  0  0  0
    1.8625    5.1509   -0.0150 C   0  0  0  0  0  0  0  0  0  0  0  0
    1.3610    6.7947    0.0303 Cl  0  0  0  0  0  0  0  0  0  0  0  0
    1.1954    4.2006    0.7532 C   0  0  0  0  0  0  0  0  0  0  0  0
    1.6227    2.8689    0.7408 C   0  0  0  0  0  0  0  0  0  0  0  0
    6.8300   -0.1559   -1.1895 H   0  0  0  0  0  0  0  0  0  0  0  0
    8.9778    1.0477   -1.1796 H   0  0  0  0  0  0  0  0  0  0  0  0
    7.3077    4.0370    1.4281 H   0  0  0  0  0  0  0  0  0  0  0  0
    5.1712    2.8300    1.4662 H   0  0  0  0  0  0  0  0  0  0  0  0
    4.1938    3.1767   -1.4819 H   0  0  0  0  0  0  0  0  0  0  0  0
    3.4600    5.5160   -1.4170 H   0  0  0  0  0  0  0  0  0  0  0  0
    0.3465    4.4874    1.3690 H   0  0  0  0  0  0  0  0  0  0  0  0
    1.0871    2.1510    1.3606 H   0  0  0  0  0  0  0  0  0  0  0  0
  1  2  1  0  0  0  0
  2  3  1  0  0  0  0
  2 13  2  0  0  0  0
  3  4  1  0  0  0  0
  4  5  2  0  0  0  0
  5  6  1  0  0  0  0
  5 13  1  0  0  0  0
  6  7  1  0  0  0  0
  6 12  2  0  0  0  0
  7  8  2  0  0  0  0
  7 21  1  0  0  0  0
  8  9  1  0  0  0  0
  8 22  1  0  0  0  0
  9 10  1  0  0  0  0
  9 11  2  0  0  0  0
 11 12  1  0  0  0  0
 11 23  1  0  0  0  0
 12 24  1  0  0  0  0
 13 14  1  0  0  0  0
 14 15  1  0  0  0  0
 14 20  2  0  0  0  0
 15 16  2  0  0  0  0
 15 25  1  0  0  0  0
 16 17  1  0  0  0  0
 16 26  1  0  0  0  0
 17 18  1  0  0  0  0
 17 19  2  0  0  0  0
 19 20  1  0  0  0  0
 19 27  1  0  0  0  0
 20 28  1  0  0  0  0
M  CHG  2   1  -1   2   1
M  END
>  <Energy>
59.5624

$$$$

 OpenBabel04232614443D

 44 47  0  0  0  0  0  0  0  0999 V2000
    2.8966   -0.9190   -0.0433 C   0  0  0  0  0  0  0  0  0  0  0  0
    1.5492   -0.2456   -0.0492 C   0  0  0  0  0  0  0  0  0  0  0  0
    0.3917   -1.0496   -0.0193 C   0  0  0  0  0  0  0  0  0  0  0  0
   -0.8747   -0.4475   -0.0362 C   0  0  0  0  0  0  0  0  0  0  0  0
   -2.1245   -1.0213   -0.0086 N   0  0  0  0  0  0  0  0  0  0  0  0
   -2.9832   -0.0206   -0.0361 C   0  0  0  0  0  0  0  0  0  0  0  0
   -4.4003   -0.0079   -0.0010 C   0  0  0  0  0  0  0  0  0  0  0  0
   -5.0944   -1.1575    0.0790 C   0  0  0  0  0  0  0  0  0  0  0  0
   -6.5099   -1.1220    0.1574 C   0  0  0  0  0  0  0  0  0  0  0  0
   -7.3432   -0.0993    0.1455 N   0  0  0  0  0  0  0  0  0  0  0  0
   -8.6001   -0.6341    0.2956 C   0  0  0  0  0  0  0  0  0  0  0  0
   -9.8440    0.0085    0.3592 C   0  0  0  0  0  0  0  0  0  0  0  0
  -11.0202   -0.7514    0.5300 C   0  0  0  0  0  0  0  0  0  0  0  0
  -12.3355   -0.0197    0.5799 C   0  0  0  0  0  0  0  0  0  0  0  0
  -10.9387   -2.1568    0.6443 C   0  0  0  0  0  0  0  0  0  0  0  0
  -12.1581   -3.0206    0.8578 C   0  0  0  0  0  0  0  0  0  0  0  0
   -9.6856   -2.8090    0.5724 C   0  0  0  0  0  0  0  0  0  0  0  0
   -8.5474   -2.0156    0.3975 C   0  0  0  0  0  0  0  0  0  0  0  0
   -7.2067   -2.3046    0.2891 N   0  0  0  0  0  0  0  0  0  0  0  0
   -2.3145    1.1834   -0.0946 N   0  0  0  0  0  0  0  0  0  0  0  0
   -0.9619    0.9361   -0.0856 C   0  0  0  0  0  0  0  0  0  0  0  0
    0.1581    1.7724   -0.1112 C   0  0  0  0  0  0  0  0  0  0  0  0
    1.4315    1.1626   -0.0890 C   0  0  0  0  0  0  0  0  0  0  0  0
    2.6605    2.0364   -0.1019 C   0  0  0  0  0  0  0  0  0  0  0  0
    2.8003   -2.0094   -0.0076 H   0  0  0  0  0  0  0  0  0  0  0  0
    3.4756   -0.6109    0.8328 H   0  0  0  0  0  0  0  0  0  0  0  0
    3.4499   -0.6688   -0.9544 H   0  0  0  0  0  0  0  0  0  0  0  0
    0.4555   -2.1321    0.0183 H   0  0  0  0  0  0  0  0  0  0  0  0
   -4.9287    0.9422   -0.0203 H   0  0  0  0  0  0  0  0  0  0  0  0
   -4.5715   -2.1107    0.1004 H   0  0  0  0  0  0  0  0  0  0  0  0
   -9.8766    1.0897    0.2775 H   0  0  0  0  0  0  0  0  0  0  0  0
  -12.1994    1.0614    0.4672 H   0  0  0  0  0  0  0  0  0  0  0  0
  -12.8319   -0.1883    1.5408 H   0  0  0  0  0  0  0  0  0  0  0  0
  -12.9854   -0.3520   -0.2361 H   0  0  0  0  0  0  0  0  0  0  0  0
  -13.0907   -2.4505    0.8752 H   0  0  0  0  0  0  0  0  0  0  0  0
  -12.0801   -3.5450    1.8161 H   0  0  0  0  0  0  0  0  0  0  0  0
  -12.2435   -3.7569    0.0520 H   0  0  0  0  0  0  0  0  0  0  0  0
   -9.6124   -3.8887    0.6560 H   0  0  0  0  0  0  0  0  0  0  0  0
   -6.8000   -3.2275    0.3193 H   0  0  0  0  0  0  0  0  0  0  0  0
   -2.7443    2.0953   -0.1272 H   0  0  0  0  0  0  0  0  0  0  0  0
    0.0530    2.8531   -0.1442 H   0  0  0  0  0  0  0  0  0  0  0  0
    2.4021    3.0995   -0.1467 H   0  0  0  0  0  0  0  0  0  0  0  0
    3.2810    1.8119   -0.9758 H   0  0  0  0  0  0  0  0  0  0  0  0
    3.2474    1.8789    0.8095 H   0  0  0  0  0  0  0  0  0  0  0  0
  1  2  1  0  0  0  0
  1 25  1  0  0  0  0
  1 26  1  0  0  0  0
  1 27  1  0  0  0  0
  2  3  1  0  0  0  0
  2 23  2  0  0  0  0
  3  4  2  0  0  0  0
  3 28  1  0  0  0  0
  4  5  1  0  0  0  0
  4 21  1  0  0  0  0
  5  6  2  0  0  0  0
  6  7  1  0  0  0  0
  6 20  1  0  0  0  0
  7  8  2  0  0  0  0
  7 29  1  0  0  0  0
  8  9  1  0  0  0  0
  8 30  1  0  0  0  0
  9 10  2  0  0  0  0
  9 19  1  0  0  0  0
 10 11  1  0  0  0  0
 11 12  1  0  0  0  0
 11 18  2  0  0  0  0
 12 13  2  0  0  0  0
 12 31  1  0  0  0  0
 13 14  1  0  0  0  0
 13 15  1  0  0  0  0
 14 32  1  0  0  0  0
 14 33  1  0  0  0  0
 14 34  1  0  0  0  0
 15 16  1  0  0  0  0
 15 17  2  0  0  0  0
 16 35  1  0  0  0  0
 16 36  1  0  0  0  0
 16 37  1  0  0  0  0
 17 18  1  0  0  0  0
 17 38  1  0  0  0  0
 18 19  1  0  0  0  0
 19 39  1  0  0  0  0
 20 21  1  0  0  0  0
 20 40  1  0  0  0  0
 21 22  2  0  0  0  0
 22 23  1  0  0  0  0
 22 41  1  0  0  0  0
 23 24  1  0  0  0  0
 24 42  1  0  0  0  0
 24 43  1  0  0  0  0
 24 44  1  0  0  0  0
M  END
>  <Energy>
17.7914

$$$$

 OpenBabel04232614443D

 35 38  0  0  0  0  0  0  0  0999 V2000
    1.0871   -0.1462    0.2310 N   0  0  0  0  0  0  0  0  0  0  0  0
    2.4630   -0.1220    0.1337 C   0  0  0  0  0  0  0  0  0  0  0  0
    3.2273   -1.2232   -0.0487 C   0  0  0  0  0  0  0  0  0  0  0  0
    2.7475   -2.5434   -0.1892 C   0  0  0  0  0  0  0  0  0  0  0  0
    1.5860   -2.8661   -0.7350 N   0  0  0  0  0  0  0  0  0  0  0  0
    1.3883   -4.2340   -0.7123 C   0  0  0  0  0  0  0  0  0  0  0  0
    0.2713   -4.9119   -1.2395 C   0  0  0  0  0  0  0  0  0  0  0  0
    0.1940   -6.3033   -1.1405 C   0  0  0  0  0  0  0  0  0  0  0  0
    1.2110   -7.0211   -0.5183 C   0  0  0  0  0  0  0  0  0  0  0  0
    2.3298   -6.3693    0.0118 C   0  0  0  0  0  0  0  0  0  0  0  0
    2.4011   -4.9710   -0.1028 C   0  0  0  0  0  0  0  0  0  0  0  0
    3.6338   -3.8941    0.4231 S   0  0  0  0  0  0  0  0  0  0  0  0
    4.6129   -0.7317   -0.2090 C   0  0  0  0  0  0  0  0  0  0  0  0
    5.5955   -1.4355   -0.4037 O   0  0  0  0  0  0  0  0  0  0  0  0
    4.6286    0.7814   -0.1509 C   0  0  0  0  0  0  0  0  0  0  0  0
    3.2175    1.0550    0.1368 N   0  0  0  0  0  0  0  0  0  0  0  0
    2.8225    2.3537    0.4969 C   0  0  0  0  0  0  0  0  0  0  0  0
    3.4808    3.4876   -0.0095 C   0  0  0  0  0  0  0  0  0  0  0  0
    3.0546    4.7846    0.3044 C   0  0  0  0  0  0  0  0  0  0  0  0
    1.9637    4.9791    1.1440 C   0  0  0  0  0  0  0  0  0  0  0  0
    1.3119    3.8778    1.6842 C   0  0  0  0  0  0  0  0  0  0  0  0
    1.7448    2.5859    1.3678 C   0  0  0  0  0  0  0  0  0  0  0  0
    0.6937   -1.0145   -0.1451 H   0  0  0  0  0  0  0  0  0  0  0  0
    0.6831    0.6703   -0.2195 H   0  0  0  0  0  0  0  0  0  0  0  0
   -0.5197   -4.3462   -1.7217 H   0  0  0  0  0  0  0  0  0  0  0  0
   -0.6672   -6.8244   -1.5523 H   0  0  0  0  0  0  0  0  0  0  0  0
    1.1374   -8.1043   -0.4442 H   0  0  0  0  0  0  0  0  0  0  0  0
    3.1226   -6.9311    0.4958 H   0  0  0  0  0  0  0  0  0  0  0  0
    4.9264    1.1716   -1.1287 H   0  0  0  0  0  0  0  0  0  0  0  0
    5.2915    1.1169    0.6524 H   0  0  0  0  0  0  0  0  0  0  0  0
    4.3209    3.3863   -0.6906 H   0  0  0  0  0  0  0  0  0  0  0  0
    3.5720    5.6417   -0.1190 H   0  0  0  0  0  0  0  0  0  0  0  0
    1.6242    5.9840    1.3797 H   0  0  0  0  0  0  0  0  0  0  0  0
    0.4674    4.0144    2.3539 H   0  0  0  0  0  0  0  0  0  0  0  0
    1.2304    1.7512    1.8389 H   0  0  0  0  0  0  0  0  0  0  0  0
  1  2  1  0  0  0  0
  1 23  1  0  0  0  0
  1 24  1  0  0  0  0
  2  3  2  0  0  0  0
  2 16  1  0  0  0  0
  3  4  1  0  0  0  0
  3 13  1  0  0  0  0
  4  5  2  0  0  0  0
  4 12  1  0  0  0  0
  5  6  1  0  0  0  0
  6  7  1  0  0  0  0
  6 11  2  0  0  0  0
  7  8  2  0  0  0  0
  7 25  1  0  0  0  0
  8  9  1  0  0  0  0
  8 26  1  0  0  0  0
  9 10  2  0  0  0  0
  9 27  1  0  0  0  0
 10 11  1  0  0  0  0
 10 28  1  0  0  0  0
 11 12  1  0  0  0  0
 13 14  2  0  0  0  0
 13 15  1  0  0  0  0
 15 16  1  0  0  0  0
 15 29  1  0  0  0  0
 15 30  1  0  0  0  0
 16 17  1  0  0  0  0
 17 18  1  0  0  0  0
 17 22  2  0  0  0  0
 18 19  2  0  0  0  0
 18 31  1  0  0  0  0
 19 20  1  0  0  0  0
 19 32  1  0  0  0  0
 20 21  2  0  0  0  0
 20 33  1  0  0  0  0
 21 22  1  0  0  0  0
 21 34  1  0  0  0  0
 22 35  1  0  0  0  0
M  END
>  <Energy>
45.6489

$$$$

 OpenBabel04232614443D

 38 40  0  0  0  0  0  0  0  0999 V2000
    2.1545    0.2888    0.4295 C   0  0  0  0  0  0  0  0  0  0  0  0
    0.6575    0.1815    0.4131 C   0  0  0  0  0  0  0  0  0  0  0  0
   -0.1390    1.1357    1.0567 C   0  0  0  0  0  0  0  0  0  0  0  0
   -1.5315    1.0890    0.9441 C   0  0  0  0  0  0  0  0  0  0  0  0
   -2.1472    0.0862    0.1866 C   0  0  0  0  0  0  0  0  0  0  0  0
   -3.5732    0.1897   -0.1426 C   0  0  0  0  0  0  0  0  0  0  0  0
   -3.9923    0.8017   -1.2693 C   0  0  0  0  0  0  0  0  0  0  0  0
   -3.1938    1.4354   -2.3585 C   0  0  0  0  0  0  0  0  0  0  0  0
   -5.7388    0.7675   -1.3775 S   0  0  0  0  0  0  0  0  0  0  0  0
   -5.8745   -0.2163    0.1163 C   0  0  0  0  0  0  0  0  0  0  0  0
   -6.9666   -0.7181    0.5973 N   0  0  0  0  0  0  0  0  0  0  0  0
   -8.1376   -0.6224   -0.1146 C   0  0  0  0  0  0  0  0  0  0  0  0
   -8.2439   -0.8031   -1.3246 O   0  0  0  0  0  0  0  0  0  0  0  0
   -9.3017   -0.4047    0.7273 C   0  0  0  0  0  0  0  0  0  0  0  0
  -10.6263   -0.2003    0.3662 C   0  0  0  0  0  0  0  0  0  0  0  0
  -11.3749   -0.1233    1.5643 C   0  0  0  0  0  0  0  0  0  0  0  0
  -10.4682   -0.2754    2.5868 C   0  0  0  0  0  0  0  0  0  0  0  0
   -9.2108   -0.4313    2.0974 O   0  0  0  0  0  0  0  0  0  0  0  0
   -4.5929   -0.3350    0.6643 N   0  0  0  0  0  0  0  0  0  0  0  0
   -4.3569   -1.0899    1.8820 C   0  0  0  0  0  0  0  0  0  0  0  0
   -1.3545   -0.9045   -0.4074 C   0  0  0  0  0  0  0  0  0  0  0  0
    0.0388   -0.8557   -0.2947 C   0  0  0  0  0  0  0  0  0  0  0  0
    2.4890    1.1558    1.0088 H   0  0  0  0  0  0  0  0  0  0  0  0
    2.5299    0.4107   -0.5927 H   0  0  0  0  0  0  0  0  0  0  0  0
    2.5991   -0.6075    0.8715 H   0  0  0  0  0  0  0  0  0  0  0  0
    0.3198    1.9482    1.6159 H   0  0  0  0  0  0  0  0  0  0  0  0
   -2.1295    1.8727    1.4042 H   0  0  0  0  0  0  0  0  0  0  0  0
   -2.1153    1.3405   -2.2043 H   0  0  0  0  0  0  0  0  0  0  0  0
   -3.4210    2.5036   -2.4295 H   0  0  0  0  0  0  0  0  0  0  0  0
   -3.4226    0.9664   -3.3216 H   0  0  0  0  0  0  0  0  0  0  0  0
  -10.9908   -0.1379   -0.6494 H   0  0  0  0  0  0  0  0  0  0  0  0
  -12.4426    0.0122    1.6666 H   0  0  0  0  0  0  0  0  0  0  0  0
  -10.5586   -0.3021    3.6642 H   0  0  0  0  0  0  0  0  0  0  0  0
   -5.2868   -1.3354    2.4054 H   0  0  0  0  0  0  0  0  0  0  0  0
   -3.7428   -0.5130    2.5821 H   0  0  0  0  0  0  0  0  0  0  0  0
   -3.8429   -2.0305    1.6576 H   0  0  0  0  0  0  0  0  0  0  0  0
   -1.8125   -1.6856   -1.0111 H   0  0  0  0  0  0  0  0  0  0  0  0
    0.6404   -1.6067   -0.8035 H   0  0  0  0  0  0  0  0  0  0  0  0
  1  2  1  0  0  0  0
  1 23  1  0  0  0  0
  1 24  1  0  0  0  0
  1 25  1  0  0  0  0
  2  3  1  0  0  0  0
  2 22  2  0  0  0  0
  3  4  2  0  0  0  0
  3 26  1  0  0  0  0
  4  5  1  0  0  0  0
  4 27  1  0  0  0  0
  5  6  1  0  0  0  0
  5 21  2  0  0  0  0
  6  7  2  0  0  0  0
  6 19  1  0  0  0  0
  7  8  1  0  0  0  0
  7  9  1  0  0  0  0
  8 28  1  0  0  0  0
  8 29  1  0  0  0  0
  8 30  1  0  0  0  0
  9 10  1  0  0  0  0
 10 11  2  0  0  0  0
 10 19  1  0  0  0  0
 11 12  1  0  0  0  0
 12 13  2  0  0  0  0
 12 14  1  0  0  0  0
 14 15  2  0  0  0  0
 14 18  1  0  0  0  0
 15 16  1  0  0  0  0
 15 31  1  0  0  0  0
 16 17  2  0  0  0  0
 16 32  1  0  0  0  0
 17 18  1  0  0  0  0
 17 33  1  0  0  0  0
 19 20  1  0  0  0  0
 20 34  1  0  0  0  0
 20 35  1  0  0  0  0
 20 36  1  0  0  0  0
 21 22  1  0  0  0  0
 21 37  1  0  0  0  0
 22 38  1  0  0  0  0
M  END
>  <Energy>
32.0109

$$$$

 OpenBabel04232614443D

 36 39  0  0  0  0  0  0  0  0999 V2000
    0.9747    0.0483   -0.2206 O   0  0  0  0  0  0  0  0  0  0  0  0
    2.1906   -0.0220   -0.1065 C   0  0  0  0  0  0  0  0  0  0  0  0
    3.0820    1.0566    0.0238 N   0  0  0  0  0  0  0  0  0  0  0  0
    2.6633    2.4357   -0.1018 C   0  0  0  0  0  0  0  0  0  0  0  0
    2.6910    2.9048   -1.5411 C   0  0  0  0  0  0  0  0  0  0  0  0
    1.5859    2.6903   -2.3790 C   0  0  0  0  0  0  0  0  0  0  0  0
    1.6413    3.0360   -3.7308 C   0  0  0  0  0  0  0  0  0  0  0  0
    2.8018    3.5945   -4.2621 C   0  0  0  0  0  0  0  0  0  0  0  0
    3.8989    3.8306   -3.4373 C   0  0  0  0  0  0  0  0  0  0  0  0
    3.8407    3.4957   -2.0838 C   0  0  0  0  0  0  0  0  0  0  0  0
    4.4097    0.6083    0.0803 C   0  0  0  0  0  0  0  0  0  0  0  0
    5.5726    1.3494    0.2059 C   0  0  0  0  0  0  0  0  0  0  0  0
    6.7961    0.6707    0.1803 C   0  0  0  0  0  0  0  0  0  0  0  0
    6.8362   -0.7246    0.0352 C   0  0  0  0  0  0  0  0  0  0  0  0
    8.3573   -1.5274   -0.0269 Cl  0  0  0  0  0  0  0  0  0  0  0  0
    5.6613   -1.4686   -0.0567 C   0  0  0  0  0  0  0  0  0  0  0  0
    4.4527   -0.7862   -0.0214 C   0  0  0  0  0  0  0  0  0  0  0  0
    3.0558   -1.3402   -0.0735 C   0  0  0  0  0  0  0  0  0  0  0  0
    2.8697   -2.1627   -1.2237 O   0  0  0  0  0  0  0  0  0  0  0  0
    2.4981   -3.4421   -0.7112 C   0  0  0  0  0  0  0  0  0  0  0  0
    1.9721   -3.1572    0.6693 C   0  0  0  0  0  0  0  0  0  0  0  0
    2.8092   -2.0957    1.1165 O   0  0  0  0  0  0  0  0  0  0  0  0
    3.2870    3.0759    0.5326 H   0  0  0  0  0  0  0  0  0  0  0  0
    1.6402    2.5279    0.2836 H   0  0  0  0  0  0  0  0  0  0  0  0
    0.6790    2.2323   -1.9862 H   0  0  0  0  0  0  0  0  0  0  0  0
    0.7832    2.8532   -4.3726 H   0  0  0  0  0  0  0  0  0  0  0  0
    2.8535    3.8395   -5.3194 H   0  0  0  0  0  0  0  0  0  0  0  0
    4.8055    4.2648   -3.8505 H   0  0  0  0  0  0  0  0  0  0  0  0
    4.7108    3.6862   -1.4630 H   0  0  0  0  0  0  0  0  0  0  0  0
    5.5594    2.4256    0.3277 H   0  0  0  0  0  0  0  0  0  0  0  0
    7.7229    1.2333    0.2701 H   0  0  0  0  0  0  0  0  0  0  0  0
    5.6847   -2.5487   -0.1585 H   0  0  0  0  0  0  0  0  0  0  0  0
    3.4007   -4.0613   -0.6716 H   0  0  0  0  0  0  0  0  0  0  0  0
    1.7639   -3.9234   -1.3621 H   0  0  0  0  0  0  0  0  0  0  0  0
    2.0403   -4.0141    1.3441 H   0  0  0  0  0  0  0  0  0  0  0  0
    0.9377   -2.7979    0.6449 H   0  0  0  0  0  0  0  0  0  0  0  0
  1  2  2  0  0  0  0
  2  3  1  0  0  0  0
  2 18  1  0  0  0  0
  3  4  1  0  0  0  0
  3 11  1  0  0  0  0
  4  5  1  0  0  0  0
  4 23  1  0  0  0  0
  4 24  1  0  0  0  0
  5  6  1  0  0  0  0
  5 10  2  0  0  0  0
  6  7  2  0  0  0  0
  6 25  1  0  0  0  0
  7  8  1  0  0  0  0
  7 26  1  0  0  0  0
  8  9  2  0  0  0  0
  8 27  1  0  0  0  0
  9 10  1  0  0  0  0
  9 28  1  0  0  0  0
 10 29  1  0  0  0  0
 11 12  1  0  0  0  0
 11 17  2  0  0  0  0
 12 13  2  0  0  0  0
 12 30  1  0  0  0  0
 13 14  1  0  0  0  0
 13 31  1  0  0  0  0
 14 15  1  0  0  0  0
 14 16  2  0  0  0  0
 16 17  1  0  0  0  0
 16 32  1  0  0  0  0
 17 18  1  0  0  0  0
 18 19  1  0  0  0  0
 18 22  1  0  0  0  0
 19 20  1  0  0  0  0
 20 21  1  0  0  0  0
 20 33  1  0  0  0  0
 20 34  1  0  0  0  0
 21 22  1  0  0  0  0
 21 35  1  0  0  0  0
 21 36  1  0  0  0  0
M  END
>  <Energy>
98.4177

$$$$

 OpenBabel04232614443D

 39 41  0  0  0  0  0  0  0  0999 V2000
   -3.3459    0.3156    0.1401 O   0  0  0  0  0  0  0  0  0  0  0  0
   -2.1608    0.0116    0.1356 C   0  0  0  0  0  0  0  0  0  0  0  0
   -1.7430   -1.3968    0.0085 C   0  0  0  0  0  0  0  0  0  0  0  0
   -0.4596   -1.7716    0.0092 C   0  0  0  0  0  0  0  0  0  0  0  0
    0.5845   -0.7650    0.1382 C   0  0  0  0  0  0  0  0  0  0  0  0
    1.9484   -1.0901    0.1565 C   0  0  0  0  0  0  0  0  0  0  0  0
    2.9149   -0.0777    0.2467 C   0  0  0  0  0  0  0  0  0  0  0  0
    4.2825   -0.4309    0.2977 N   0  0  0  0  0  0  0  0  0  0  0  0
    5.3505    0.3043   -0.1531 C   0  0  0  0  0  0  0  0  0  0  0  0
    5.3693    1.3863   -1.4280 S   0  0  0  0  0  0  0  0  0  0  0  0
    6.5376    0.0883    0.4918 N   0  0  0  0  0  0  0  0  0  0  0  0
    6.7154   -0.3416    1.8841 C   0  0  0  0  0  0  0  0  0  0  0  0
    6.1222    0.7018    2.8455 C   0  0  0  0  0  0  0  0  0  0  0  0
    6.4425    0.4015    4.3057 C   0  0  0  0  0  0  0  0  0  0  0  0
    7.9435    0.2673    4.5238 C   0  0  0  0  0  0  0  0  0  0  0  0
    8.5241   -0.8218    3.6295 C   0  0  0  0  0  0  0  0  0  0  0  0
    8.2128   -0.5672    2.1566 C   0  0  0  0  0  0  0  0  0  0  0  0
    2.5026    1.2567    0.3750 C   0  0  0  0  0  0  0  0  0  0  0  0
    1.1481    1.5860    0.3713 C   0  0  0  0  0  0  0  0  0  0  0  0
    0.2069    0.5722    0.2463 C   0  0  0  0  0  0  0  0  0  0  0  0
   -1.1485    0.9543    0.2471 O   0  0  0  0  0  0  0  0  0  0  0  0
   -2.5497   -2.1133   -0.0850 H   0  0  0  0  0  0  0  0  0  0  0  0
   -0.1825   -2.8150   -0.0899 H   0  0  0  0  0  0  0  0  0  0  0  0
    2.2560   -2.1287    0.0674 H   0  0  0  0  0  0  0  0  0  0  0  0
    4.4979   -1.4071    0.4560 H   0  0  0  0  0  0  0  0  0  0  0  0
    7.2655    0.6951    0.1269 H   0  0  0  0  0  0  0  0  0  0  0  0
    6.1812   -1.2902    2.0150 H   0  0  0  0  0  0  0  0  0  0  0  0
    5.0340    0.7516    2.7252 H   0  0  0  0  0  0  0  0  0  0  0  0
    6.5049    1.6988    2.5904 H   0  0  0  0  0  0  0  0  0  0  0  0
    5.9420   -0.5262    4.6092 H   0  0  0  0  0  0  0  0  0  0  0  0
    6.0465    1.2019    4.9406 H   0  0  0  0  0  0  0  0  0  0  0  0
    8.1470    0.0341    5.5748 H   0  0  0  0  0  0  0  0  0  0  0  0
    8.4343    1.2247    4.3075 H   0  0  0  0  0  0  0  0  0  0  0  0
    8.1180   -1.7956    3.9278 H   0  0  0  0  0  0  0  0  0  0  0  0
    9.6099   -0.8711    3.7720 H   0  0  0  0  0  0  0  0  0  0  0  0
    8.5763   -1.4099    1.5556 H   0  0  0  0  0  0  0  0  0  0  0  0
    8.7844    0.3107    1.8266 H   0  0  0  0  0  0  0  0  0  0  0  0
    3.2261    2.0544    0.5170 H   0  0  0  0  0  0  0  0  0  0  0  0
    0.8364    2.6209    0.4736 H   0  0  0  0  0  0  0  0  0  0  0  0
  1  2  2  0  0  0  0
  2  3  1  0  0  0  0
  2 21  1  0  0  0  0
  3  4  2  0  0  0  0
  3 22  1  0  0  0  0
  4  5  1  0  0  0  0
  4 23  1  0  0  0  0
  5  6  1  0  0  0  0
  5 20  2  0  0  0  0
  6  7  2  0  0  0  0
  6 24  1  0  0  0  0
  7  8  1  0  0  0  0
  7 18  1  0  0  0  0
  8  9  1  0  0  0  0
  8 25  1  0  0  0  0
  9 10  2  0  0  0  0
  9 11  1  0  0  0  0
 11 12  1  0  0  0  0
 11 26  1  0  0  0  0
 12 13  1  0  0  0  0
 12 17  1  0  0  0  0
 12 27  1  0  0  0  0
 13 14  1  0  0  0  0
 13 28  1  0  0  0  0
 13 29  1  0  0  0  0
 14 15  1  0  0  0  0
 14 30  1  0  0  0  0
 14 31  1  0  0  0  0
 15 16  1  0  0  0  0
 15 32  1  0  0  0  0
 15 33  1  0  0  0  0
 16 17  1  0  0  0  0
 16 34  1  0  0  0  0
 16 35  1  0  0  0  0
 17 36  1  0  0  0  0
 17 37  1  0  0  0  0
 18 19  2  0  0  0  0
 18 38  1  0  0  0  0
 19 20  1  0  0  0  0
 19 39  1  0  0  0  0
 20 21  1  0  0  0  0
M  END
>  <Energy>
-10.7522

$$$$

 OpenBabel04232614443D

 36 39  0  0  0  0  0  0  0  0999 V2000
   -0.3826   -2.5203   -1.0750 C   0  0  0  0  0  0  0  0  0  0  0  0
   -1.0113   -1.1830   -0.8202 C   0  0  0  0  0  0  0  0  0  0  0  0
   -2.3689   -1.0569   -0.4990 C   0  0  0  0  0  0  0  0  0  0  0  0
   -2.9431    0.2057   -0.2732 C   0  0  0  0  0  0  0  0  0  0  0  0
   -2.1702    1.3668   -0.3659 C   0  0  0  0  0  0  0  0  0  0  0  0
   -2.6783    2.7309   -0.1559 C   0  0  0  0  0  0  0  0  0  0  0  0
   -1.8799    3.7707    0.0661 N   0  0  0  0  0  0  0  0  0  0  0  0
   -2.6205    4.9179    0.0649 N   0  0  0  0  0  0  0  0  0  0  0  0
   -3.8601    4.5616   -0.1311 C   0  0  0  0  0  0  0  0  0  0  0  0
   -3.9954    3.1933   -0.2013 N   0  0  0  0  0  0  0  0  0  0  0  0
   -5.1539    2.4571   -0.3627 N   0  0  0  0  0  0  0  0  0  0  0  0
   -6.2911    3.0795   -0.1831 C   0  0  0  0  0  0  0  0  0  0  0  0
   -7.5668    2.3054   -0.3709 C   0  0  0  0  0  0  0  0  0  0  0  0
   -8.7381    2.6534    0.3205 C   0  0  0  0  0  0  0  0  0  0  0  0
   -9.9275    1.9582    0.0923 C   0  0  0  0  0  0  0  0  0  0  0  0
   -9.9521    0.9008   -0.8133 C   0  0  0  0  0  0  0  0  0  0  0  0
   -8.7861    0.5309   -1.4839 C   0  0  0  0  0  0  0  0  0  0  0  0
   -7.5946    1.2273   -1.2623 C   0  0  0  0  0  0  0  0  0  0  0  0
   -6.4613    4.5233    0.2800 C   0  0  0  0  0  0  0  0  0  0  0  0
   -5.1953    5.6134   -0.3685 S   0  0  0  0  0  0  0  0  0  0  0  0
   -0.8047    1.2223   -0.6778 C   0  0  0  0  0  0  0  0  0  0  0  0
   -0.2329   -0.0310   -0.9048 C   0  0  0  0  0  0  0  0  0  0  0  0
   -1.1045   -3.3351   -0.9636 H   0  0  0  0  0  0  0  0  0  0  0  0
    0.4343   -2.6939   -0.3666 H   0  0  0  0  0  0  0  0  0  0  0  0
    0.0161   -2.5598   -2.0944 H   0  0  0  0  0  0  0  0  0  0  0  0
   -2.9952   -1.9429   -0.4197 H   0  0  0  0  0  0  0  0  0  0  0  0
   -3.9974    0.2509   -0.0160 H   0  0  0  0  0  0  0  0  0  0  0  0
   -8.7555    3.4593    1.0489 H   0  0  0  0  0  0  0  0  0  0  0  0
  -10.8346    2.2419    0.6216 H   0  0  0  0  0  0  0  0  0  0  0  0
  -10.8799    0.3627   -0.9941 H   0  0  0  0  0  0  0  0  0  0  0  0
   -8.8079   -0.2993   -2.1868 H   0  0  0  0  0  0  0  0  0  0  0  0
   -6.6984    0.9325   -1.8036 H   0  0  0  0  0  0  0  0  0  0  0  0
   -7.4200    4.9306   -0.0521 H   0  0  0  0  0  0  0  0  0  0  0  0
   -6.4325    4.5404    1.3741 H   0  0  0  0  0  0  0  0  0  0  0  0
   -0.1669    2.1026   -0.7516 H   0  0  0  0  0  0  0  0  0  0  0  0
    0.8265   -0.0941   -1.1482 H   0  0  0  0  0  0  0  0  0  0  0  0
  1  2  1  0  0  0  0
  1 23  1  0  0  0  0
  1 24  1  0  0  0  0
  1 25  1  0  0  0  0
  2  3  1  0  0  0  0
  2 22  2  0  0  0  0
  3  4  2  0  0  0  0
  3 26  1  0  0  0  0
  4  5  1  0  0  0  0
  4 27  1  0  0  0  0
  5  6  1  0  0  0  0
  5 21  2  0  0  0  0
  6  7  2  0  0  0  0
  6 10  1  0  0  0  0
  7  8  1  0  0  0  0
  8  9  2  0  0  0  0
  9 10  1  0  0  0  0
  9 20  1  0  0  0  0
 10 11  1  0  0  0  0
 11 12  2  0  0  0  0
 12 13  1  0  0  0  0
 12 19  1  0  0  0  0
 13 14  1  0  0  0  0
 13 18  2  0  0  0  0
 14 15  2  0  0  0  0
 14 28  1  0  0  0  0
 15 16  1  0  0  0  0
 15 29  1  0  0  0  0
 16 17  2  0  0  0  0
 16 30  1  0  0  0  0
 17 18  1  0  0  0  0
 17 31  1  0  0  0  0
 18 32  1  0  0  0  0
 19 20  1  0  0  0  0
 19 33  1  0  0  0  0
 19 34  1  0  0  0  0
 21 22  1  0  0  0  0
 21 35  1  0  0  0  0
 22 36  1  0  0  0  0
M  END
>  <Energy>
124.895

$$$$

 OpenBabel04232614443D

 41 43  0  0  0  0  0  0  0  0999 V2000
    1.0353    0.1911    0.3705 C   0  0  0  0  0  0  0  0  0  0  0  0
    2.5322   -0.0006    0.0847 C   0  0  0  0  0  0  0  0  0  0  0  0
    3.3113    0.2616    1.3884 C   0  0  0  0  0  0  0  0  0  0  0  0
    2.9607    1.0213   -0.9589 C   0  0  0  0  0  0  0  0  0  0  0  0
    3.4369    2.1139   -0.6595 O   0  0  0  0  0  0  0  0  0  0  0  0
    2.7034    0.6664   -2.3761 C   0  0  0  0  0  0  0  0  0  0  0  0
    2.0038    1.4568   -3.2137 C   0  0  0  0  0  0  0  0  0  0  0  0
    1.4893    2.7753   -2.8600 C   0  0  0  0  0  0  0  0  0  0  0  0
    0.6572    3.4673   -3.6463 C   0  0  0  0  0  0  0  0  0  0  0  0
    0.2631    2.8905   -4.9222 C   0  0  0  0  0  0  0  0  0  0  0  0
   -0.6255    3.5403   -5.7809 C   0  0  0  0  0  0  0  0  0  0  0  0
   -0.9619    2.9582   -7.0057 C   0  0  0  0  0  0  0  0  0  0  0  0
   -0.4122    1.7295   -7.3734 C   0  0  0  0  0  0  0  0  0  0  0  0
    0.4725    1.0768   -6.5156 C   0  0  0  0  0  0  0  0  0  0  0  0
    0.8035    1.6581   -5.2919 C   0  0  0  0  0  0  0  0  0  0  0  0
    1.6688    0.9626   -4.4823 O   0  0  0  0  0  0  0  0  0  0  0  0
    3.0110   -0.7300   -2.7909 C   0  0  0  0  0  0  0  0  0  0  0  0
    3.5703   -0.9666   -3.8590 O   0  0  0  0  0  0  0  0  0  0  0  0
    2.5465   -1.8252   -1.8391 C   0  0  0  0  0  0  0  0  0  0  0  0
    1.0484   -2.0790   -2.0688 C   0  0  0  0  0  0  0  0  0  0  0  0
    3.3091   -3.1282   -2.1468 C   0  0  0  0  0  0  0  0  0  0  0  0
    2.7861   -1.4435   -0.3696 C   0  0  0  0  0  0  0  0  0  0  0  0
    3.0718   -2.3138    0.4599 O   0  0  0  0  0  0  0  0  0  0  0  0
    0.8538    1.1096    0.9400 H   0  0  0  0  0  0  0  0  0  0  0  0
    0.6274   -0.6498    0.9423 H   0  0  0  0  0  0  0  0  0  0  0  0
    0.4464    0.2820   -0.5472 H   0  0  0  0  0  0  0  0  0  0  0  0
    3.1391    1.2780    1.7633 H   0  0  0  0  0  0  0  0  0  0  0  0
    4.3902    0.1468    1.2343 H   0  0  0  0  0  0  0  0  0  0  0  0
    3.0113   -0.4308    2.1834 H   0  0  0  0  0  0  0  0  0  0  0  0
    1.7770    3.2264   -1.9151 H   0  0  0  0  0  0  0  0  0  0  0  0
    0.2796    4.4416   -3.3580 H   0  0  0  0  0  0  0  0  0  0  0  0
   -1.0579    4.5000   -5.5099 H   0  0  0  0  0  0  0  0  0  0  0  0
   -1.6525    3.4659   -7.6750 H   0  0  0  0  0  0  0  0  0  0  0  0
   -0.6709    1.2816   -8.3296 H   0  0  0  0  0  0  0  0  0  0  0  0
    0.9060    0.1216   -6.7990 H   0  0  0  0  0  0  0  0  0  0  0  0
    0.8797   -2.6603   -2.9825 H   0  0  0  0  0  0  0  0  0  0  0  0
    0.4835   -1.1503   -2.1941 H   0  0  0  0  0  0  0  0  0  0  0  0
    0.6018   -2.6272   -1.2318 H   0  0  0  0  0  0  0  0  0  0  0  0
    3.1617   -3.4455   -3.1859 H   0  0  0  0  0  0  0  0  0  0  0  0
    2.9720   -3.9517   -1.5059 H   0  0  0  0  0  0  0  0  0  0  0  0
    4.3866   -3.0039   -1.9900 H   0  0  0  0  0  0  0  0  0  0  0  0
  1  2  1  0  0  0  0
  1 24  1  0  0  0  0
  1 25  1  0  0  0  0
  1 26  1  0  0  0  0
  2  3  1  0  0  0  0
  2  4  1  0  0  0  0
  2 22  1  0  0  0  0
  3 27  1  0  0  0  0
  3 28  1  0  0  0  0
  3 29  1  0  0  0  0
  4  5  2  0  0  0  0
  4  6  1  0  0  0  0
  6  7  2  0  0  0  0
  6 17  1  0  0  0  0
  7  8  1  0  0  0  0
  7 16  1  0  0  0  0
  8  9  2  0  0  0  0
  8 30  1  0  0  0  0
  9 10  1  0  0  0  0
  9 31  1  0  0  0  0
 10 11  1  0  0  0  0
 10 15  2  0  0  0  0
 11 12  2  0  0  0  0
 11 32  1  0  0  0  0
 12 13  1  0  0  0  0
 12 33  1  0  0  0  0
 13 14  2  0  0  0  0
 13 34  1  0  0  0  0
 14 15  1  0  0  0  0
 14 35  1  0  0  0  0
 15 16  1  0  0  0  0
 17 18  2  0  0  0  0
 17 19  1  0  0  0  0
 19 20  1  0  0  0  0
 19 21  1  0  0  0  0
 19 22  1  0  0  0  0
 20 36  1  0  0  0  0
 20 37  1  0  0  0  0
 20 38  1  0  0  0  0
 21 39  1  0  0  0  0
 21 40  1  0  0  0  0
 21 41  1  0  0  0  0
 22 23  2  0  0  0  0
M  END
>  <Energy>
41.8255

$$$$

 OpenBabel04232614443D

 50 53  0  0  1  0  0  0  0  0999 V2000
   -0.0805   -1.6910   -4.1351 C   0  0  0  0  0  0  0  0  0  0  0  0
   -0.7262   -1.3764   -2.7879 C   0  0  1  0  0  0  0  0  0  0  0  0
   -0.7413    0.1324   -2.5183 C   0  0  0  0  0  0  0  0  0  0  0  0
   -1.3849    0.4546   -1.1679 C   0  0  0  0  0  0  0  0  0  0  0  0
   -2.8001   -0.1296   -1.0441 C   0  0  2  0  0  0  0  0  0  0  0  0
   -3.3454    0.0665    0.3743 C   0  0  0  0  0  0  0  0  0  0  0  0
   -3.2745   -0.8309    1.2169 O   0  0  0  0  0  0  0  0  0  0  0  0
   -3.8940    1.2874    0.6973 N   0  0  0  0  0  0  0  0  0  0  0  0
   -4.1178    2.4332   -0.1646 C   0  0  0  0  0  0  0  0  0  0  0  0
   -4.3557    3.5780    0.7984 C   0  0  2  0  0  0  0  0  0  0  0  0
   -3.0803    4.2007    1.3714 C   0  0  0  0  0  0  0  0  0  0  0  0
   -3.5437    4.6791    2.6689 N   0  0  0  0  0  0  0  0  0  0  0  0
   -2.6336    5.3023    3.5029 C   0  0  0  0  0  0  0  0  0  0  0  0
   -3.0306    5.7906    4.7516 C   0  0  0  0  0  0  0  0  0  0  0  0
   -2.1164    6.4495    5.5722 C   0  0  0  0  0  0  0  0  0  0  0  0
   -0.8137    6.6157    5.1345 C   0  0  0  0  0  0  0  0  0  0  0  0
   -0.4905    6.1206    3.8844 C   0  0  0  0  0  0  0  0  0  0  0  0
   -1.3658    5.4850    3.0722 N   0  0  0  0  0  0  0  0  0  0  0  0
   -4.5270    3.7507    3.2259 C   0  0  0  0  0  0  0  0  0  0  0  0
   -5.0079    2.9268    2.0259 C   0  0  2  0  0  0  0  0  0  0  0  0
   -4.4942    1.4868    2.0088 C   0  0  0  0  0  0  0  0  0  0  0  0
   -2.8048   -1.6310   -1.3833 C   0  0  0  0  0  0  0  0  0  0  0  0
   -2.1500   -1.9374   -2.7255 C   0  0  0  0  0  0  0  0  0  0  0  0
    0.9456   -1.3103   -4.1727 H   0  0  0  0  0  0  0  0  0  0  0  0
   -0.6407   -1.2419   -4.9618 H   0  0  0  0  0  0  0  0  0  0  0  0
   -0.0412   -2.7732   -4.3009 H   0  0  0  0  0  0  0  0  0  0  0  0
   -0.1247   -1.8617   -2.0074 H   0  0  0  0  0  0  0  0  0  0  0  0
   -1.2910    0.6495   -3.3154 H   0  0  0  0  0  0  0  0  0  0  0  0
    0.2823    0.5251   -2.5336 H   0  0  0  0  0  0  0  0  0  0  0  0
   -1.3988    1.5415   -1.0346 H   0  0  0  0  0  0  0  0  0  0  0  0
   -0.7497    0.0631   -0.3629 H   0  0  0  0  0  0  0  0  0  0  0  0
   -3.4673    0.3743   -1.7539 H   0  0  0  0  0  0  0  0  0  0  0  0
   -5.0219    2.2232   -0.7480 H   0  0  0  0  0  0  0  0  0  0  0  0
   -3.2908    2.6088   -0.8533 H   0  0  0  0  0  0  0  0  0  0  0  0
   -4.9917    4.3594    0.3667 H   0  0  0  0  0  0  0  0  0  0  0  0
   -2.7219    5.0121    0.7288 H   0  0  0  0  0  0  0  0  0  0  0  0
   -2.2801    3.4581    1.4874 H   0  0  0  0  0  0  0  0  0  0  0  0
   -4.0574    5.6879    5.0821 H   0  0  0  0  0  0  0  0  0  0  0  0
   -2.4303    6.8348    6.5382 H   0  0  0  0  0  0  0  0  0  0  0  0
   -0.0740    7.1224    5.7427 H   0  0  0  0  0  0  0  0  0  0  0  0
    0.5132    6.2264    3.4834 H   0  0  0  0  0  0  0  0  0  0  0  0
   -5.3651    4.3065    3.6597 H   0  0  0  0  0  0  0  0  0  0  0  0
   -4.0927    3.1137    4.0060 H   0  0  0  0  0  0  0  0  0  0  0  0
   -6.1015    2.9329    1.9525 H   0  0  0  0  0  0  0  0  0  0  0  0
   -5.3255    0.7802    2.1198 H   0  0  0  0  0  0  0  0  0  0  0  0
   -3.7535    1.2628    2.7830 H   0  0  0  0  0  0  0  0  0  0  0  0
   -3.8376   -2.0008   -1.3886 H   0  0  0  0  0  0  0  0  0  0  0  0
   -2.2788   -2.1983   -0.6044 H   0  0  0  0  0  0  0  0  0  0  0  0
   -2.7596   -1.5156   -3.5344 H   0  0  0  0  0  0  0  0  0  0  0  0
   -2.1310   -3.0238   -2.8739 H   0  0  0  0  0  0  0  0  0  0  0  0
  1  2  1  0  0  0  0
  1 24  1  0  0  0  0
  1 25  1  0  0  0  0
  1 26  1  0  0  0  0
  2  3  1  0  0  0  0
  2 23  1  0  0  0  0
  2 27  1  1  0  0  0
  3  4  1  0  0  0  0
  3 28  1  0  0  0  0
  3 29  1  0  0  0  0
  4  5  1  0  0  0  0
  4 30  1  0  0  0  0
  4 31  1  0  0  0  0
  5 22  1  0  0  0  0
  5  6  1  0  0  0  0
  5 32  1  6  0  0  0
  6  7  2  0  0  0  0
  6  8  1  0  0  0  0
  8  9  1  0  0  0  0
  8 21  1  0  0  0  0
  9 10  1  0  0  0  0
  9 33  1  0  0  0  0
  9 34  1  0  0  0  0
 10 11  1  0  0  0  0
 10 20  1  0  0  0  0
 10 35  1  6  0  0  0
 11 12  1  0  0  0  0
 11 36  1  0  0  0  0
 11 37  1  0  0  0  0
 12 13  1  0  0  0  0
 12 19  1  0  0  0  0
 13 14  1  0  0  0  0
 13 18  2  0  0  0  0
 14 15  2  0  0  0  0
 14 38  1  0  0  0  0
 15 16  1  0  0  0  0
 15 39  1  0  0  0  0
 16 17  2  0  0  0  0
 16 40  1  0  0  0  0
 17 18  1  0  0  0  0
 17 41  1  0  0  0  0
 19 20  1  0  0  0  0
 19 42  1  0  0  0  0
 19 43  1  0  0  0  0
 20 21  1  0  0  0  0
 20 44  1  6  0  0  0
 21 45  1  0  0  0  0
 21 46  1  0  0  0  0
 22 23  1  0  0  0  0
 22 47  1  0  0  0  0
 22 48  1  0  0  0  0
 23 49  1  0  0  0  0
 23 50  1  0  0  0  0
M  END
>  <Energy>
-8.74949

$$$$

 OpenBabel04232614443D

 36 38  0  0  0  0  0  0  0  0999 V2000
    1.0290    4.6962   -0.3188 F   0  0  0  0  0  0  0  0  0  0  0  0
    2.2400    4.6380   -0.9378 C   0  0  0  0  0  0  0  0  0  0  0  0
    2.2174    5.6069   -1.8952 F   0  0  0  0  0  0  0  0  0  0  0  0
    3.1531    5.0503   -0.0147 F   0  0  0  0  0  0  0  0  0  0  0  0
    2.5714    3.2788   -1.5030 C   0  0  0  0  0  0  0  0  0  0  0  0
    1.7193    2.1848   -1.3153 C   0  0  0  0  0  0  0  0  0  0  0  0
    2.0410    0.9453   -1.8627 C   0  0  0  0  0  0  0  0  0  0  0  0
    3.2168    0.7884   -2.6028 C   0  0  0  0  0  0  0  0  0  0  0  0
    4.1041    1.8595   -2.8082 C   0  0  0  0  0  0  0  0  0  0  0  0
    5.3311    1.6884   -3.6071 C   0  0  0  0  0  0  0  0  0  0  0  0
    6.5051    2.3862   -3.3812 C   0  0  0  0  0  0  0  0  0  0  0  0
    7.6035    2.1829   -4.2245 C   0  0  0  0  0  0  0  0  0  0  0  0
    7.5356    1.2856   -5.2815 C   0  0  0  0  0  0  0  0  0  0  0  0
    8.6048    1.0668   -6.1210 N   0  0  0  0  0  0  0  0  0  0  0  0
    9.5912    2.0973   -6.4585 C   0  0  0  0  0  0  0  0  0  0  0  0
    9.6329    2.3257   -7.9795 C   0  0  0  0  0  0  0  0  0  0  0  0
    9.8353    1.0989   -8.6956 O   0  0  0  0  0  0  0  0  0  0  0  0
    8.7518    0.1912   -8.4300 C   0  0  0  0  0  0  0  0  0  0  0  0
    8.6609   -0.1529   -6.9374 C   0  0  0  0  0  0  0  0  0  0  0  0
    6.3878    0.5977   -5.4430 N   0  0  0  0  0  0  0  0  0  0  0  0
    5.2828    0.7995   -4.6183 N   0  0  0  0  0  0  0  0  0  0  0  0
    3.7569    3.1015   -2.2420 C   0  0  0  0  0  0  0  0  0  0  0  0
    0.7952    2.2941   -0.7495 H   0  0  0  0  0  0  0  0  0  0  0  0
    1.3742    0.0974   -1.7228 H   0  0  0  0  0  0  0  0  0  0  0  0
    3.4401   -0.1908   -3.0265 H   0  0  0  0  0  0  0  0  0  0  0  0
    6.5996    3.0748   -2.5485 H   0  0  0  0  0  0  0  0  0  0  0  0
    8.5208    2.7179   -4.0078 H   0  0  0  0  0  0  0  0  0  0  0  0
   10.5733    1.7501   -6.1157 H   0  0  0  0  0  0  0  0  0  0  0  0
    9.3911    3.0599   -5.9776 H   0  0  0  0  0  0  0  0  0  0  0  0
   10.4600    2.9964   -8.2295 H   0  0  0  0  0  0  0  0  0  0  0  0
    8.7063    2.7948   -8.3323 H   0  0  0  0  0  0  0  0  0  0  0  0
    8.9390   -0.7197   -9.0080 H   0  0  0  0  0  0  0  0  0  0  0  0
    7.8177    0.6334   -8.7950 H   0  0  0  0  0  0  0  0  0  0  0  0
    9.5685   -0.6955   -6.6450 H   0  0  0  0  0  0  0  0  0  0  0  0
    7.8194   -0.8333   -6.7686 H   0  0  0  0  0  0  0  0  0  0  0  0
    4.4005    3.9680   -2.3953 H   0  0  0  0  0  0  0  0  0  0  0  0
  1  2  1  0  0  0  0
  2  3  1  0  0  0  0
  2  4  1  0  0  0  0
  2  5  1  0  0  0  0
  5  6  1  0  0  0  0
  5 22  2  0  0  0  0
  6  7  2  0  0  0  0
  6 23  1  0  0  0  0
  7  8  1  0  0  0  0
  7 24  1  0  0  0  0
  8  9  2  0  0  0  0
  8 25  1  0  0  0  0
  9 10  1  0  0  0  0
  9 22  1  0  0  0  0
 10 11  1  0  0  0  0
 10 21  2  0  0  0  0
 11 12  2  0  0  0  0
 11 26  1  0  0  0  0
 12 13  1  0  0  0  0
 12 27  1  0  0  0  0
 13 14  1  0  0  0  0
 13 20  2  0  0  0  0
 14 15  1  0  0  0  0
 14 19  1  0  0  0  0
 15 16  1  0  0  0  0
 15 28  1  0  0  0  0
 15 29  1  0  0  0  0
 16 17  1  0  0  0  0
 16 30  1  0  0  0  0
 16 31  1  0  0  0  0
 17 18  1  0  0  0  0
 18 19  1  0  0  0  0
 18 32  1  0  0  0  0
 18 33  1  0  0  0  0
 19 34  1  0  0  0  0
 19 35  1  0  0  0  0
 20 21  1  0  0  0  0
 22 36  1  0  0  0  0
M  END
>  <Energy>
130.477

$$$$

 OpenBabel04232614443D

 32 34  0  0  0  0  0  0  0  0999 V2000
    1.0173   -0.3155    0.0134 O   0  0  0  0  0  0  0  0  0  0  0  0
    2.2417   -0.2445   -0.0312 C   0  0  0  0  0  0  0  0  0  0  0  0
    2.8977    0.5753   -1.0551 C   0  0  0  0  0  0  0  0  0  0  0  0
    2.3917    1.7733   -1.6239 C   0  0  0  0  0  0  0  0  0  0  0  0
    3.2984    2.1198   -2.5966 C   0  0  0  0  0  0  0  0  0  0  0  0
    3.4319    3.1955   -3.5730 C   0  0  0  0  0  0  0  0  0  0  0  0
    3.9209    2.8828   -4.8567 C   0  0  0  0  0  0  0  0  0  0  0  0
    4.0882    3.8723   -5.8297 C   0  0  0  0  0  0  0  0  0  0  0  0
    3.7663    5.1916   -5.5325 C   0  0  0  0  0  0  0  0  0  0  0  0
    3.9912    6.4149   -6.7199 Cl  0  0  0  0  0  0  0  0  0  0  0  0
    3.2707    5.5281   -4.2766 C   0  0  0  0  0  0  0  0  0  0  0  0
    3.1029    4.5367   -3.3009 C   0  0  0  0  0  0  0  0  0  0  0  0
    2.5224    5.0654   -1.7580 Cl  0  0  0  0  0  0  0  0  0  0  0  0
    4.2911    1.1840   -2.6114 O   0  0  0  0  0  0  0  0  0  0  0  0
    4.0511    0.2250   -1.6468 N   0  0  0  0  0  0  0  0  0  0  0  0
    3.0462   -0.9077    0.8919 N   0  0  0  0  0  0  0  0  0  0  0  0
    2.4716   -1.7935    1.8866 C   0  0  0  0  0  0  0  0  0  0  0  0
    3.2067   -1.4245    3.1620 C   0  0  0  0  0  0  0  0  0  0  0  0
    4.6097   -1.1023    2.6615 C   0  0  0  0  0  0  0  0  0  0  0  0
    4.3766   -0.4682    1.2915 C   0  0  0  0  0  0  0  0  0  0  0  0
    1.4804    2.2862   -1.3528 H   0  0  0  0  0  0  0  0  0  0  0  0
    4.1756    1.8543   -5.1126 H   0  0  0  0  0  0  0  0  0  0  0  0
    4.4724    3.6044   -6.8112 H   0  0  0  0  0  0  0  0  0  0  0  0
    3.0241    6.5631   -4.0522 H   0  0  0  0  0  0  0  0  0  0  0  0
    2.7125   -2.8193    1.5833 H   0  0  0  0  0  0  0  0  0  0  0  0
    1.3865   -1.6966    1.9747 H   0  0  0  0  0  0  0  0  0  0  0  0
    3.1913   -2.2250    3.9055 H   0  0  0  0  0  0  0  0  0  0  0  0
    2.7542   -0.5292    3.6061 H   0  0  0  0  0  0  0  0  0  0  0  0
    5.1899   -2.0248    2.5549 H   0  0  0  0  0  0  0  0  0  0  0  0
    5.1527   -0.4369    3.3387 H   0  0  0  0  0  0  0  0  0  0  0  0
    5.1223   -0.8054    0.5665 H   0  0  0  0  0  0  0  0  0  0  0  0
    4.3921    0.6254    1.3519 H   0  0  0  0  0  0  0  0  0  0  0  0
  1  2  2  0  0  0  0
  2  3  1  0  0  0  0
  2 16  1  0  0  0  0
  3  4  1  0  0  0  0
  3 15  2  0  0  0  0
  4  5  2  0  0  0  0
  4 21  1  0  0  0  0
  5  6  1  0  0  0  0
  5 14  1  0  0  0  0
  6  7  1  0  0  0  0
  6 12  2  0  0  0  0
  7  8  2  0  0  0  0
  7 22  1  0  0  0  0
  8  9  1  0  0  0  0
  8 23  1  0  0  0  0
  9 10  1  0  0  0  0
  9 11  2  0  0  0  0
 11 12  1  0  0  0  0
 11 24  1  0  0  0  0
 12 13  1  0  0  0  0
 14 15  1  0  0  0  0
 16 17  1  0  0  0  0
 16 20  1  0  0  0  0
 17 18  1  0  0  0  0
 17 25  1  0  0  0  0
 17 26  1  0  0  0  0
 18 19  1  0  0  0  0
 18 27  1  0  0  0  0
 18 28  1  0  0  0  0
 19 20  1  0  0  0  0
 19 29  1  0  0  0  0
 19 30  1  0  0  0  0
 20 31  1  0  0  0  0
 20 32  1  0  0  0  0
M  END
>  <Energy>
40.2002

$$$$

 OpenBabel04232614443D

 40 43  0  0  0  0  0  0  0  0999 V2000
    1.0288    0.0549    0.0035 C   0  0  0  0  0  0  0  0  0  0  0  0
    2.5253    0.0281    0.1439 C   0  0  0  0  0  0  0  0  0  0  0  0
    3.2378    1.2381    0.1650 C   0  0  0  0  0  0  0  0  0  0  0  0
    4.6146    1.2813    0.3539 C   0  0  0  0  0  0  0  0  0  0  0  0
    5.2408    2.4686    0.3860 N   0  0  0  0  0  0  0  0  0  0  0  0
    6.5910    2.4761    0.6338 C   0  0  0  0  0  0  0  0  0  0  0  0
    7.2077    3.8184    0.5951 C   0  0  0  0  0  0  0  0  0  0  0  0
    6.5362    4.9385    1.0941 C   0  0  0  0  0  0  0  0  0  0  0  0
    7.1438    6.1903    1.0297 C   0  0  0  0  0  0  0  0  0  0  0  0
    8.4095    6.2994    0.4721 C   0  0  0  0  0  0  0  0  0  0  0  0
    9.0045    5.1519   -0.0221 C   0  0  0  0  0  0  0  0  0  0  0  0
    8.4271    3.9302    0.0018 N   0  0  0  0  0  0  0  0  0  0  0  0
    7.2802    1.2804    0.8682 C   0  0  0  0  0  0  0  0  0  0  0  0
    8.6792    1.1857    1.3318 C   0  0  0  0  0  0  0  0  0  0  0  0
    9.5255    0.1624    0.8992 C   0  0  0  0  0  0  0  0  0  0  0  0
   10.8207    0.0821    1.4072 C   0  0  0  0  0  0  0  0  0  0  0  0
   11.2458    1.0260    2.3319 C   0  0  0  0  0  0  0  0  0  0  0  0
   10.3472    2.0003    2.7271 C   0  0  0  0  0  0  0  0  0  0  0  0
    9.0788    2.0844    2.2727 N   0  0  0  0  0  0  0  0  0  0  0  0
    6.6397    0.0698    0.7707 N   0  0  0  0  0  0  0  0  0  0  0  0
    5.3188    0.0758    0.5248 C   0  0  0  0  0  0  0  0  0  0  0  0
    4.6237   -1.1256    0.4716 C   0  0  0  0  0  0  0  0  0  0  0  0
    3.2324   -1.1757    0.2869 C   0  0  0  0  0  0  0  0  0  0  0  0
    2.5354   -2.5073    0.2872 C   0  0  0  0  0  0  0  0  0  0  0  0
    0.6572    1.0740   -0.1456 H   0  0  0  0  0  0  0  0  0  0  0  0
    0.5594   -0.3399    0.9102 H   0  0  0  0  0  0  0  0  0  0  0  0
    0.7120   -0.5384   -0.8596 H   0  0  0  0  0  0  0  0  0  0  0  0
    2.7088    2.1826    0.0513 H   0  0  0  0  0  0  0  0  0  0  0  0
    5.5468    4.8351    1.5299 H   0  0  0  0  0  0  0  0  0  0  0  0
    6.6318    7.0666    1.4155 H   0  0  0  0  0  0  0  0  0  0  0  0
    8.9186    7.2548    0.4205 H   0  0  0  0  0  0  0  0  0  0  0  0
    9.9958    5.1831   -0.4643 H   0  0  0  0  0  0  0  0  0  0  0  0
    9.1750   -0.5730    0.1804 H   0  0  0  0  0  0  0  0  0  0  0  0
   11.4872   -0.7118    1.0836 H   0  0  0  0  0  0  0  0  0  0  0  0
   12.2498    1.0001    2.7393 H   0  0  0  0  0  0  0  0  0  0  0  0
   10.6296    2.7645    3.4454 H   0  0  0  0  0  0  0  0  0  0  0  0
    5.1882   -2.0464    0.6008 H   0  0  0  0  0  0  0  0  0  0  0  0
    3.2502   -3.3346    0.3275 H   0  0  0  0  0  0  0  0  0  0  0  0
    1.9448   -2.6332   -0.6257 H   0  0  0  0  0  0  0  0  0  0  0  0
    1.8802   -2.5897    1.1602 H   0  0  0  0  0  0  0  0  0  0  0  0
  1  2  1  0  0  0  0
  1 25  1  0  0  0  0
  1 26  1  0  0  0  0
  1 27  1  0  0  0  0
  2  3  1  0  0  0  0
  2 23  2  0  0  0  0
  3  4  2  0  0  0  0
  3 28  1  0  0  0  0
  4  5  1  0  0  0  0
  4 21  1  0  0  0  0
  5  6  2  0  0  0  0
  6  7  1  0  0  0  0
  6 13  1  0  0  0  0
  7  8  1  0  0  0  0
  7 12  2  0  0  0  0
  8  9  2  0  0  0  0
  8 29  1  0  0  0  0
  9 10  1  0  0  0  0
  9 30  1  0  0  0  0
 10 11  2  0  0  0  0
 10 31  1  0  0  0  0
 11 12  1  0  0  0  0
 11 32  1  0  0  0  0
 13 14  1  0  0  0  0
 13 20  2  0  0  0  0
 14 15  1  0  0  0  0
 14 19  2  0  0  0  0
 15 16  2  0  0  0  0
 15 33  1  0  0  0  0
 16 17  1  0  0  0  0
 16 34  1  0  0  0  0
 17 18  2  0  0  0  0
 17 35  1  0  0  0  0
 18 19  1  0  0  0  0
 18 36  1  0  0  0  0
 20 21  1  0  0  0  0
 21 22  2  0  0  0  0
 22 23  1  0  0  0  0
 22 37  1  0  0  0  0
 23 24  1  0  0  0  0
 24 38  1  0  0  0  0
 24 39  1  0  0  0  0
 24 40  1  0  0  0  0
M  END
>  <Energy>
165.6

$$$$

 OpenBabel04232614443D

 35 37  0  0  1  0  0  0  0  0999 V2000
    3.0192    0.9978   -0.6378 N   0  0  0  0  0  0  0  0  0  0  0  0
    2.4907   -0.0240    0.0904 C   0  0  0  0  0  0  0  0  0  0  0  0
    1.3975   -0.5029   -0.1942 O   0  0  0  0  0  0  0  0  0  0  0  0
    3.2931   -0.4340    1.1379 N   0  0  0  0  0  0  0  0  0  0  0  0
    4.4352    0.2444    1.4994 N   0  0  0  0  0  0  0  0  0  0  0  0
    4.8417   -0.2853    2.6155 C   0  0  0  0  0  0  0  0  0  0  0  0
    6.0255    0.2046    3.3602 C   0  0  0  0  0  0  0  0  0  0  0  0
    6.7225    1.3178    2.8726 C   0  0  0  0  0  0  0  0  0  0  0  0
    7.8274    1.8141    3.5656 C   0  0  0  0  0  0  0  0  0  0  0  0
    8.2405    1.2023    4.7470 C   0  0  0  0  0  0  0  0  0  0  0  0
    7.5526    0.0931    5.2369 C   0  0  0  0  0  0  0  0  0  0  0  0
    6.4462   -0.4075    4.5467 C   0  0  0  0  0  0  0  0  0  0  0  0
    4.0110   -1.4344    3.1299 C   0  0  0  0  0  0  0  0  0  0  0  0
    2.9364   -1.5123    2.0508 C   0  0  3  0  0  0  0  0  0  0  0  0
    2.9068   -2.8660    1.3627 C   0  0  0  0  0  0  0  0  0  0  0  0
    1.7551   -3.6648    1.4349 C   0  0  0  0  0  0  0  0  0  0  0  0
    1.7016   -4.8951    0.7722 C   0  0  0  0  0  0  0  0  0  0  0  0
    2.8007   -5.3318    0.0361 C   0  0  0  0  0  0  0  0  0  0  0  0
    2.7287   -6.8365   -0.7960 Cl  0  0  0  0  0  0  0  0  0  0  0  0
    3.9544   -4.5559   -0.0374 C   0  0  0  0  0  0  0  0  0  0  0  0
    4.0073   -3.3284    0.6208 C   0  0  0  0  0  0  0  0  0  0  0  0
    2.5717    1.2078   -1.5160 H   0  0  0  0  0  0  0  0  0  0  0  0
    4.0207    1.1037   -0.5478 H   0  0  0  0  0  0  0  0  0  0  0  0
    6.4064    1.8095    1.9560 H   0  0  0  0  0  0  0  0  0  0  0  0
    8.3622    2.6804    3.1847 H   0  0  0  0  0  0  0  0  0  0  0  0
    9.0987    1.5925    5.2900 H   0  0  0  0  0  0  0  0  0  0  0  0
    7.8770   -0.3816    6.1608 H   0  0  0  0  0  0  0  0  0  0  0  0
    5.9309   -1.2704    4.9569 H   0  0  0  0  0  0  0  0  0  0  0  0
    3.5819   -1.1847    4.1050 H   0  0  0  0  0  0  0  0  0  0  0  0
    4.6225   -2.3381    3.2185 H   0  0  0  0  0  0  0  0  0  0  0  0
    1.9507   -1.2805    2.4734 H   0  0  0  0  0  0  0  0  0  0  0  0
    0.8789   -3.3246    1.9835 H   0  0  0  0  0  0  0  0  0  0  0  0
    0.7976   -5.4933    0.8206 H   0  0  0  0  0  0  0  0  0  0  0  0
    4.8095   -4.8928   -0.6188 H   0  0  0  0  0  0  0  0  0  0  0  0
    4.9055   -2.7205    0.5335 H   0  0  0  0  0  0  0  0  0  0  0  0
  1  2  1  0  0  0  0
  1 22  1  0  0  0  0
  1 23  1  0  0  0  0
  2  3  2  0  0  0  0
  2  4  1  0  0  0  0
  4  5  1  0  0  0  0
  4 14  1  0  0  0  0
  5  6  2  0  0  0  0
  6  7  1  0  0  0  0
  6 13  1  0  0  0  0
  7  8  1  0  0  0  0
  7 12  2  0  0  0  0
  8  9  2  0  0  0  0
  8 24  1  0  0  0  0
  9 10  1  0  0  0  0
  9 25  1  0  0  0  0
 10 11  2  0  0  0  0
 10 26  1  0  0  0  0
 11 12  1  0  0  0  0
 11 27  1  0  0  0  0
 12 28  1  0  0  0  0
 13 14  1  0  0  0  0
 13 29  1  0  0  0  0
 13 30  1  0  0  0  0
 14 15  1  0  0  0  0
 14 31  1  0  0  0  0
 15 16  1  0  0  0  0
 15 21  2  0  0  0  0
 16 17  2  0  0  0  0
 16 32  1  0  0  0  0
 17 18  1  0  0  0  0
 17 33  1  0  0  0  0
 18 19  1  0  0  0  0
 18 20  2  0  0  0  0
 20 21  1  0  0  0  0
 20 34  1  0  0  0  0
 21 35  1  0  0  0  0
M  END
>  <Energy>
19.383

$$$$

 OpenBabel04232614443D

 31 35  0  0  0  0  0  0  0  0999 V2000
    1.1390    0.1899    0.0701 O   0  0  0  0  0  0  0  0  0  0  0  0
    2.3651    0.1501    0.0853 C   0  0  0  0  0  0  0  0  0  0  0  0
    3.0980   -1.1510    0.0645 C   0  0  0  0  0  0  0  0  0  0  0  0
    2.2934   -2.2532    0.0518 N   0  0  0  0  0  0  0  0  0  0  0  0
    2.8825   -3.4562    0.0450 C   0  0  0  0  0  0  0  0  0  0  0  0
    4.2474   -3.6151    0.0557 C   0  0  0  0  0  0  0  0  0  0  0  0
    5.0554   -2.4724    0.0687 C   0  0  0  0  0  0  0  0  0  0  0  0
    6.7571   -2.8098    0.1048 Cl  0  0  0  0  0  0  0  0  0  0  0  0
    4.4961   -1.1777    0.0642 C   0  0  0  0  0  0  0  0  0  0  0  0
    5.2296    0.1019    0.0637 C   0  0  0  0  0  0  0  0  0  0  0  0
    6.5710    0.0478   -0.0106 N   0  0  0  0  0  0  0  0  0  0  0  0
    7.3012    1.1687   -0.0018 C   0  0  0  0  0  0  0  0  0  0  0  0
    8.6765    1.0324   -0.1111 C   0  0  0  0  0  0  0  0  0  0  0  0
    9.5282    2.1361   -0.1055 C   0  0  0  0  0  0  0  0  0  0  0  0
    8.9929    3.4065    0.0338 C   0  0  0  0  0  0  0  0  0  0  0  0
    7.6105    3.5654    0.1383 C   0  0  0  0  0  0  0  0  0  0  0  0
    6.7307    2.4503    0.1004 C   0  0  0  0  0  0  0  0  0  0  0  0
    5.3035    2.5259    0.1416 C   0  0  0  0  0  0  0  0  0  0  0  0
    4.5694    3.7325    0.1803 C   0  0  0  0  0  0  0  0  0  0  0  0
    3.1852    3.6987    0.1799 C   0  0  0  0  0  0  0  0  0  0  0  0
    2.4731    2.5623    0.1558 N   0  0  0  0  0  0  0  0  0  0  0  0
    3.1704    1.3984    0.1276 C   0  0  0  0  0  0  0  0  0  0  0  0
    4.5613    1.3239    0.1149 C   0  0  0  0  0  0  0  0  0  0  0  0
    2.2103   -4.3092    0.0331 H   0  0  0  0  0  0  0  0  0  0  0  0
    4.6779   -4.6123    0.0560 H   0  0  0  0  0  0  0  0  0  0  0  0
    9.0996    0.0351   -0.2111 H   0  0  0  0  0  0  0  0  0  0  0  0
   10.6005    1.9961   -0.2053 H   0  0  0  0  0  0  0  0  0  0  0  0
    9.6463    4.2753    0.0538 H   0  0  0  0  0  0  0  0  0  0  0  0
    7.2286    4.5773    0.2465 H   0  0  0  0  0  0  0  0  0  0  0  0
    5.0560    4.7019    0.1941 H   0  0  0  0  0  0  0  0  0  0  0  0
    2.5986    4.6152    0.1895 H   0  0  0  0  0  0  0  0  0  0  0  0
  1  2  2  0  0  0  0
  2  3  1  0  0  0  0
  2 22  1  0  0  0  0
  3  4  1  0  0  0  0
  3  9  2  0  0  0  0
  4  5  2  0  0  0  0
  5  6  1  0  0  0  0
  5 24  1  0  0  0  0
  6  7  2  0  0  0  0
  6 25  1  0  0  0  0
  7  8  1  0  0  0  0
  7  9  1  0  0  0  0
  9 10  1  0  0  0  0
 10 11  1  0  0  0  0
 10 23  2  0  0  0  0
 11 12  2  0  0  0  0
 12 13  1  0  0  0  0
 12 17  1  0  0  0  0
 13 14  2  0  0  0  0
 13 26  1  0  0  0  0
 14 15  1  0  0  0  0
 14 27  1  0  0  0  0
 15 16  2  0  0  0  0
 15 28  1  0  0  0  0
 16 17  1  0  0  0  0
 16 29  1  0  0  0  0
 17 18  2  0  0  0  0
 18 19  1  0  0  0  0
 18 23  1  0  0  0  0
 19 20  2  0  0  0  0
 19 30  1  0  0  0  0
 20 21  1  0  0  0  0
 20 31  1  0  0  0  0
 21 22  2  0  0  0  0
 22 23  1  0  0  0  0
M  END
>  <Energy>
104.41

$$$$

 OpenBabel04232614443D

 35 38  0  0  0  0  0  0  0  0999 V2000
    2.4874    2.3187   -1.4783 O   0  0  0  0  0  0  0  0  0  0  0  0
    1.3709    1.8153   -1.4266 C   0  0  0  0  0  0  0  0  0  0  0  0
    0.6839    1.4583   -2.5525 N   0  0  0  0  0  0  0  0  0  0  0  0
   -0.5778    0.9188   -2.5964 C   0  0  0  0  0  0  0  0  0  0  0  0
   -1.1420    0.6579   -3.6524 O   0  0  0  0  0  0  0  0  0  0  0  0
   -1.2241    0.6724   -1.2936 C   0  0  0  0  0  0  0  0  0  0  0  0
   -2.4963    0.0987   -1.2188 C   0  0  0  0  0  0  0  0  0  0  0  0
   -3.0829   -0.1263    0.0293 C   0  0  0  0  0  0  0  0  0  0  0  0
   -4.6677   -0.9340    0.1382 S   0  0  0  0  0  0  0  0  0  0  0  0
   -5.8210    0.4298    0.1285 C   0  0  0  0  0  0  0  0  0  0  0  0
   -5.8627    1.3616   -0.9106 C   0  0  0  0  0  0  0  0  0  0  0  0
   -6.8227    2.3798   -0.9116 C   0  0  0  0  0  0  0  0  0  0  0  0
   -7.7718    2.4754    0.1177 C   0  0  0  0  0  0  0  0  0  0  0  0
   -8.7490    3.4854    0.1263 C   0  0  0  0  0  0  0  0  0  0  0  0
   -9.6973    3.5533    1.1486 C   0  0  0  0  0  0  0  0  0  0  0  0
   -9.6818    2.6128    2.1739 C   0  0  0  0  0  0  0  0  0  0  0  0
   -8.7148    1.6058    2.1814 C   0  0  0  0  0  0  0  0  0  0  0  0
   -7.7505    1.5251    1.1623 C   0  0  0  0  0  0  0  0  0  0  0  0
   -6.7726    0.5136    1.1532 C   0  0  0  0  0  0  0  0  0  0  0  0
   -2.3733    0.2055    1.1923 C   0  0  0  0  0  0  0  0  0  0  0  0
   -1.0976    0.7795    1.1130 C   0  0  0  0  0  0  0  0  0  0  0  0
   -0.5266    1.0142   -0.1357 C   0  0  0  0  0  0  0  0  0  0  0  0
    0.7462    1.5821   -0.2344 N   0  0  0  0  0  0  0  0  0  0  0  0
    1.1404    1.6314   -3.4351 H   0  0  0  0  0  0  0  0  0  0  0  0
   -3.0163   -0.1801   -2.1330 H   0  0  0  0  0  0  0  0  0  0  0  0
   -5.1680    1.3007   -1.7438 H   0  0  0  0  0  0  0  0  0  0  0  0
   -6.8335    3.0909   -1.7353 H   0  0  0  0  0  0  0  0  0  0  0  0
   -8.7814    4.2270   -0.6690 H   0  0  0  0  0  0  0  0  0  0  0  0
  -10.4493    4.3382    1.1411 H   0  0  0  0  0  0  0  0  0  0  0  0
  -10.4230    2.6605    2.9676 H   0  0  0  0  0  0  0  0  0  0  0  0
   -8.7229    0.8778    2.9896 H   0  0  0  0  0  0  0  0  0  0  0  0
   -6.7656   -0.2272    1.9505 H   0  0  0  0  0  0  0  0  0  0  0  0
   -2.8025    0.0040    2.1722 H   0  0  0  0  0  0  0  0  0  0  0  0
   -0.5644    1.0227    2.0283 H   0  0  0  0  0  0  0  0  0  0  0  0
    1.2648    1.8453    0.5936 H   0  0  0  0  0  0  0  0  0  0  0  0
  1  2  2  0  0  0  0
  2  3  1  0  0  0  0
  2 23  1  0  0  0  0
  3  4  1  0  0  0  0
  3 24  1  0  0  0  0
  4  5  2  0  0  0  0
  4  6  1  0  0  0  0
  6  7  1  0  0  0  0
  6 22  2  0  0  0  0
  7  8  2  0  0  0  0
  7 25  1  0  0  0  0
  8  9  1  0  0  0  0
  8 20  1  0  0  0  0
  9 10  1  0  0  0  0
 10 11  1  0  0  0  0
 10 19  2  0  0  0  0
 11 12  2  0  0  0  0
 11 26  1  0  0  0  0
 12 13  1  0  0  0  0
 12 27  1  0  0  0  0
 13 14  1  0  0  0  0
 13 18  2  0  0  0  0
 14 15  2  0  0  0  0
 14 28  1  0  0  0  0
 15 16  1  0  0  0  0
 15 29  1  0  0  0  0
 16 17  2  0  0  0  0
 16 30  1  0  0  0  0
 17 18  1  0  0  0  0
 17 31  1  0  0  0  0
 18 19  1  0  0  0  0
 19 32  1  0  0  0  0
 20 21  2  0  0  0  0
 20 33  1  0  0  0  0
 21 22  1  0  0  0  0
 21 34  1  0  0  0  0
 22 23  1  0  0  0  0
 23 35  1  0  0  0  0
M  END
>  <Energy>
-47.6785

$$$$

 OpenBabel04232614443D

 33 37  0  0  0  0  0  0  0  0999 V2000
    0.9210   -0.0203   -0.3434 O   0  0  0  0  0  0  0  0  0  0  0  0
    2.1401   -0.0078   -0.2210 C   0  0  0  0  0  0  0  0  0  0  0  0
    2.9153   -1.2581   -0.0684 C   0  0  0  0  0  0  0  0  0  0  0  0
    2.2575   -2.4854    0.0537 C   0  0  0  0  0  0  0  0  0  0  0  0
    3.0140   -3.6268    0.2815 C   0  0  0  0  0  0  0  0  0  0  0  0
    2.3934   -4.8036    0.4388 F   0  0  0  0  0  0  0  0  0  0  0  0
    4.4012   -3.5511    0.3675 C   0  0  0  0  0  0  0  0  0  0  0  0
    5.1188   -4.6569    0.6079 F   0  0  0  0  0  0  0  0  0  0  0  0
    5.0563   -2.3308    0.2255 C   0  0  0  0  0  0  0  0  0  0  0  0
    4.3175   -1.1651    0.0140 C   0  0  0  0  0  0  0  0  0  0  0  0
    5.0063    0.0608   -0.0558 N   0  0  0  0  0  0  0  0  0  0  0  0
    4.2834    1.1280   -0.1285 C   0  0  0  0  0  0  0  0  0  0  0  0
    2.8992    1.1308   -0.1901 N   0  0  0  0  0  0  0  0  0  0  0  0
    2.3547    2.4724   -0.2095 C   0  0  0  0  0  0  0  0  0  0  0  0
    3.5779    3.3180   -0.1475 C   0  0  0  0  0  0  0  0  0  0  0  0
    3.7311    4.6849   -0.0818 C   0  0  0  0  0  0  0  0  0  0  0  0
    5.0393    5.1942   -0.0200 C   0  0  0  0  0  0  0  0  0  0  0  0
    5.2710    6.5770    0.0582 C   0  0  0  0  0  0  0  0  0  0  0  0
    6.5717    7.0711    0.1080 C   0  0  0  0  0  0  0  0  0  0  0  0
    7.6482    6.1916    0.0821 C   0  0  0  0  0  0  0  0  0  0  0  0
    7.4218    4.8119    0.0128 C   0  0  0  0  0  0  0  0  0  0  0  0
    6.1403    4.2855   -0.0320 C   0  0  0  0  0  0  0  0  0  0  0  0
    5.9850    2.9494   -0.0837 N   0  0  0  0  0  0  0  0  0  0  0  0
    4.7153    2.5274   -0.1365 C   0  0  0  0  0  0  0  0  0  0  0  0
    1.1751   -2.5532    0.0006 H   0  0  0  0  0  0  0  0  0  0  0  0
    6.1381   -2.2861    0.3048 H   0  0  0  0  0  0  0  0  0  0  0  0
    1.7101    2.6103    0.6644 H   0  0  0  0  0  0  0  0  0  0  0  0
    1.7856    2.6238   -1.1305 H   0  0  0  0  0  0  0  0  0  0  0  0
    2.8689    5.3403   -0.0693 H   0  0  0  0  0  0  0  0  0  0  0  0
    4.4397    7.2787    0.0787 H   0  0  0  0  0  0  0  0  0  0  0  0
    6.7469    8.1439    0.1668 H   0  0  0  0  0  0  0  0  0  0  0  0
    8.6666    6.5703    0.1165 H   0  0  0  0  0  0  0  0  0  0  0  0
    8.2701    4.1327   -0.0032 H   0  0  0  0  0  0  0  0  0  0  0  0
  1  2  2  0  0  0  0
  2  3  1  0  0  0  0
  2 13  1  0  0  0  0
  3  4  1  0  0  0  0
  3 10  2  0  0  0  0
  4  5  2  0  0  0  0
  4 25  1  0  0  0  0
  5  6  1  0  0  0  0
  5  7  1  0  0  0  0
  7  8  1  0  0  0  0
  7  9  2  0  0  0  0
  9 10  1  0  0  0  0
  9 26  1  0  0  0  0
 10 11  1  0  0  0  0
 11 12  2  0  0  0  0
 12 13  1  0  0  0  0
 12 24  1  0  0  0  0
 13 14  1  0  0  0  0
 14 15  1  0  0  0  0
 14 27  1  0  0  0  0
 14 28  1  0  0  0  0
 15 16  1  0  0  0  0
 15 24  2  0  0  0  0
 16 17  2  0  0  0  0
 16 29  1  0  0  0  0
 17 18  1  0  0  0  0
 17 22  1  0  0  0  0
 18 19  2  0  0  0  0
 18 30  1  0  0  0  0
 19 20  1  0  0  0  0
 19 31  1  0  0  0  0
 20 21  2  0  0  0  0
 20 32  1  0  0  0  0
 21 22  1  0  0  0  0
 21 33  1  0  0  0  0
 22 23  2  0  0  0  0
 23 24  1  0  0  0  0
M  END
>  <Energy>
40.9956

$$$$

 OpenBabel04232614443D

 33 36  0  0  0  0  0  0  0  0999 V2000
   -2.0674    0.0196   -0.1890 Cl  0  0  0  0  0  0  0  0  0  0  0  0
   -0.3491    0.0190   -0.1123 C   0  0  0  0  0  0  0  0  0  0  0  0
    0.3153   -1.0187    0.5387 C   0  0  0  0  0  0  0  0  0  0  0  0
    1.7123   -1.0232    0.5941 C   0  0  0  0  0  0  0  0  0  0  0  0
    2.4465    0.0111   -0.0019 C   0  0  0  0  0  0  0  0  0  0  0  0
    3.9069   -0.0075    0.0361 C   0  0  0  0  0  0  0  0  0  0  0  0
    4.6872    0.6065    1.1536 C   0  0  0  0  0  0  0  0  0  0  0  0
    5.9807    0.6061    1.2807 N   0  0  0  0  0  0  0  0  0  0  0  0
    6.6894   -0.0164    0.2828 C   0  0  0  0  0  0  0  0  0  0  0  0
    8.0438   -0.2351    0.0879 C   0  0  0  0  0  0  0  0  0  0  0  0
    9.1161    0.1661    0.9855 C   0  0  0  0  0  0  0  0  0  0  0  0
    8.9177    0.2646    2.3643 C   0  0  0  0  0  0  0  0  0  0  0  0
    9.9866    0.6217    3.1672 C   0  0  0  0  0  0  0  0  0  0  0  0
   11.2252    0.8831    2.6992 N   0  0  0  0  0  0  0  0  0  0  0  0
   11.3971    0.7856    1.3649 C   0  0  0  0  0  0  0  0  0  0  0  0
   10.3911    0.4333    0.4799 C   0  0  0  0  0  0  0  0  0  0  0  0
    8.1130   -0.9126   -1.1488 C   0  0  0  0  0  0  0  0  0  0  0  0
    6.9202   -1.1268   -1.7021 N   0  0  0  0  0  0  0  0  0  0  0  0
    6.0425   -0.5899   -0.8215 N   0  0  0  0  0  0  0  0  0  0  0  0
    4.6556   -0.5779   -0.9214 C   0  0  0  0  0  0  0  0  0  0  0  0
    1.7685    1.0506   -0.6506 C   0  0  0  0  0  0  0  0  0  0  0  0
    0.3715    1.0545   -0.7048 C   0  0  0  0  0  0  0  0  0  0  0  0
   -0.2468   -1.8270    0.9999 H   0  0  0  0  0  0  0  0  0  0  0  0
    2.2183   -1.8430    1.1008 H   0  0  0  0  0  0  0  0  0  0  0  0
    4.0853    1.1036    1.9338 H   0  0  0  0  0  0  0  0  0  0  0  0
    7.9545    0.0627    2.8195 H   0  0  0  0  0  0  0  0  0  0  0  0
    9.8697    0.7047    4.2442 H   0  0  0  0  0  0  0  0  0  0  0  0
   12.4006    1.0055    1.0113 H   0  0  0  0  0  0  0  0  0  0  0  0
   10.6115    0.3825   -0.5808 H   0  0  0  0  0  0  0  0  0  0  0  0
    8.9934   -1.2700   -1.6682 H   0  0  0  0  0  0  0  0  0  0  0  0
    4.2483   -1.0602   -1.8006 H   0  0  0  0  0  0  0  0  0  0  0  0
    2.3189    1.8625   -1.1222 H   0  0  0  0  0  0  0  0  0  0  0  0
   -0.1470    1.8636   -1.2130 H   0  0  0  0  0  0  0  0  0  0  0  0
  1  2  1  0  0  0  0
  2  3  1  0  0  0  0
  2 22  2  0  0  0  0
  3  4  2  0  0  0  0
  3 23  1  0  0  0  0
  4  5  1  0  0  0  0
  4 24  1  0  0  0  0
  5  6  1  0  0  0  0
  5 21  2  0  0  0  0
  6  7  1  0  0  0  0
  6 20  2  0  0  0  0
  7  8  2  0  0  0  0
  7 25  1  0  0  0  0
  8  9  1  0  0  0  0
  9 10  2  0  0  0  0
  9 19  1  0  0  0  0
 10 11  1  0  0  0  0
 10 17  1  0  0  0  0
 11 12  1  0  0  0  0
 11 16  2  0  0  0  0
 12 13  2  0  0  0  0
 12 26  1  0  0  0  0
 13 14  1  0  0  0  0
 13 27  1  0  0  0  0
 14 15  2  0  0  0  0
 15 16  1  0  0  0  0
 15 28  1  0  0  0  0
 16 29  1  0  0  0  0
 17 18  2  0  0  0  0
 17 30  1  0  0  0  0
 18 19  1  0  0  0  0
 19 20  1  0  0  0  0
 20 31  1  0  0  0  0
 21 22  1  0  0  0  0
 21 32  1  0  0  0  0
 22 33  1  0  0  0  0
M  END
>  <Energy>
78.6163

$$$$

 OpenBabel04232614443D

 21 22  0  0  0  0  0  0  0  0999 V2000
    1.0246   -0.0507   -0.0329 O   0  0  0  0  0  0  0  0  0  0  0  0
    2.4606   -0.1117   -0.1965 S   0  0  0  0  0  0  0  0  0  0  0  0
    3.1053   -0.1679   -1.4903 O   0  0  0  0  0  0  0  0  0  0  0  0
    3.0806   -1.2179    0.7899 N   0  0  0  0  0  0  0  0  0  0  0  0
    4.0135   -0.9162    1.6180 C   0  0  0  0  0  0  0  0  0  0  0  0
    4.6376    0.2798    1.9239 N   0  0  0  0  0  0  0  0  0  0  0  0
    5.8405    0.2505    2.7710 C   0  0  0  0  0  0  0  0  0  0  0  0
    5.5047    0.3073    4.2565 C   0  0  0  0  0  0  0  0  0  0  0  0
    4.8482   -0.8329    4.6081 F   0  0  0  0  0  0  0  0  0  0  0  0
    4.0648    1.4265    1.4318 C   0  0  0  0  0  0  0  0  0  0  0  0
    4.3272    2.7511    1.7374 C   0  0  0  0  0  0  0  0  0  0  0  0
    5.4422    3.4534    2.8495 Cl  0  0  0  0  0  0  0  0  0  0  0  0
    3.3607    3.8580    0.8762 S   0  0  0  0  0  0  0  0  0  0  0  0
    2.5767    2.6011    0.0620 C   0  0  0  0  0  0  0  0  0  0  0  0
    1.3910    3.0098   -1.1131 Cl  0  0  0  0  0  0  0  0  0  0  0  0
    3.0207    1.3671    0.4572 C   0  0  0  0  0  0  0  0  0  0  0  0
    4.4152   -1.7519    2.2179 H   0  0  0  0  0  0  0  0  0  0  0  0
    6.5438    1.0377    2.4870 H   0  0  0  0  0  0  0  0  0  0  0  0
    6.3791   -0.6876    2.5803 H   0  0  0  0  0  0  0  0  0  0  0  0
    4.8645    1.1528    4.5174 H   0  0  0  0  0  0  0  0  0  0  0  0
    6.4207    0.3567    4.8528 H   0  0  0  0  0  0  0  0  0  0  0  0
  1  2  2  0  0  0  0
  2  3  2  0  0  0  0
  2  4  1  0  0  0  0
  2 16  1  0  0  0  0
  4  5  2  0  0  0  0
  5  6  1  0  0  0  0
  5 17  1  0  0  0  0
  6  7  1  0  0  0  0
  6 10  1  0  0  0  0
  7  8  1  0  0  0  0
  7 18  1  0  0  0  0
  7 19  1  0  0  0  0
  8  9  1  0  0  0  0
  8 20  1  0  0  0  0
  8 21  1  0  0  0  0
 10 11  2  0  0  0  0
 10 16  1  0  0  0  0
 11 12  1  0  0  0  0
 11 13  1  0  0  0  0
 13 14  1  0  0  0  0
 14 15  1  0  0  0  0
 14 16  2  0  0  0  0
M  END
>  <Energy>
-45.7295

$$$$

 OpenBabel04232614443D

 26 28  0  0  1  0  0  0  0  0999 V2000
    1.4619   -0.8784    0.4825 O   0  0  0  0  0  0  0  0  0  0  0  0
    2.5318   -0.3631    0.2183 C   0  0  0  0  0  0  0  0  0  0  0  0
    3.2333   -0.5158   -0.9262 N   0  0  0  0  0  0  0  0  0  0  0  0
    4.2849    0.3487   -0.9679 C   0  0  0  0  0  0  0  0  0  0  0  0
    5.0329    0.4854   -1.9247 O   0  0  0  0  0  0  0  0  0  0  0  0
    4.3370    1.1363    0.3663 C   0  0  3  0  0  0  0  0  0  0  0  0
    5.6520    0.7632    1.0582 C   0  0  0  0  0  0  0  0  0  0  0  0
    5.8480    1.5092    2.3620 C   0  0  0  0  0  0  0  0  0  0  0  0
    6.0893    3.2748    2.0517 S   0  0  0  0  0  0  0  0  0  0  0  0
    4.7773    3.6099    0.8901 C   0  0  0  0  0  0  0  0  0  0  0  0
    4.4643    4.9689    0.6974 C   0  0  0  0  0  0  0  0  0  0  0  0
    3.4489    5.3617   -0.1778 C   0  0  0  0  0  0  0  0  0  0  0  0
    3.1258    7.0515   -0.3319 Cl  0  0  0  0  0  0  0  0  0  0  0  0
    2.7338    4.3945   -0.8761 C   0  0  0  0  0  0  0  0  0  0  0  0
    1.4553    4.7905   -1.9701 Cl  0  0  0  0  0  0  0  0  0  0  0  0
    3.0433    3.0435   -0.6956 C   0  0  0  0  0  0  0  0  0  0  0  0
    4.0748    2.6250    0.1801 C   0  0  0  0  0  0  0  0  0  0  0  0
    3.1987    0.5217    1.0299 N   0  0  0  0  0  0  0  0  0  0  0  0
    2.9333   -1.0874   -1.6978 H   0  0  0  0  0  0  0  0  0  0  0  0
    6.5058    0.9522    0.3912 H   0  0  0  0  0  0  0  0  0  0  0  0
    5.6726   -0.3158    1.2659 H   0  0  0  0  0  0  0  0  0  0  0  0
    6.7388    1.1330    2.8764 H   0  0  0  0  0  0  0  0  0  0  0  0
    4.9981    1.3690    3.0390 H   0  0  0  0  0  0  0  0  0  0  0  0
    5.0158    5.7332    1.2436 H   0  0  0  0  0  0  0  0  0  0  0  0
    2.4581    2.3108   -1.2484 H   0  0  0  0  0  0  0  0  0  0  0  0
    2.7549    0.8670    1.8718 H   0  0  0  0  0  0  0  0  0  0  0  0
  1  2  2  0  0  0  0
  2  3  1  0  0  0  0
  2 18  1  0  0  0  0
  3  4  1  0  0  0  0
  3 19  1  0  0  0  0
  4  5  2  0  0  0  0
  4  6  1  0  0  0  0
  6  7  1  0  0  0  0
  6 17  1  0  0  0  0
  6 18  1  0  0  0  0
  7  8  1  0  0  0  0
  7 20  1  0  0  0  0
  7 21  1  0  0  0  0
  8  9  1  0  0  0  0
  8 22  1  0  0  0  0
  8 23  1  0  0  0  0
  9 10  1  0  0  0  0
 10 11  1  0  0  0  0
 10 17  2  0  0  0  0
 11 12  2  0  0  0  0
 11 24  1  0  0  0  0
 12 13  1  0  0  0  0
 12 14  1  0  0  0  0
 14 15  1  0  0  0  0
 14 16  2  0  0  0  0
 16 17  1  0  0  0  0
 16 25  1  0  0  0  0
 18 26  1  0  0  0  0
M  END
>  <Energy>
-50.2394

$$$$

 OpenBabel04232614443D

 35 38  0  0  0  0  0  0  0  0999 V2000
    4.7148    7.5819    1.6277 C   0  0  0  0  0  0  0  0  0  0  0  0
    5.0663    6.5411    2.5311 O   0  0  0  0  0  0  0  0  0  0  0  0
    6.0801    6.8208    3.4149 C   0  0  0  0  0  0  0  0  0  0  0  0
    6.3837    8.1171    3.8559 C   0  0  0  0  0  0  0  0  0  0  0  0
    7.4096    8.3389    4.7687 C   0  0  0  0  0  0  0  0  0  0  0  0
    8.1512    7.2757    5.2833 C   0  0  0  0  0  0  0  0  0  0  0  0
    7.8316    5.9732    4.8650 C   0  0  0  0  0  0  0  0  0  0  0  0
    6.8212    5.7299    3.9405 C   0  0  0  0  0  0  0  0  0  0  0  0
    6.7879    4.3139    3.7268 C   0  0  0  0  0  0  0  0  0  0  0  0
    5.9729    3.5231    2.8880 C   0  0  0  0  0  0  0  0  0  0  0  0
    6.1202    2.1419    2.8566 C   0  0  0  0  0  0  0  0  0  0  0  0
    7.0853    1.5329    3.6495 C   0  0  0  0  0  0  0  0  0  0  0  0
    7.9500    2.2818    4.4731 C   0  0  0  0  0  0  0  0  0  0  0  0
    7.7764    3.7007    4.5257 C   0  0  0  0  0  0  0  0  0  0  0  0
    8.3611    4.7418    5.2392 N   0  0  0  0  0  0  0  0  0  0  0  0
    9.3578    4.6556    6.2884 C   0  0  0  0  0  0  0  0  0  0  0  0
    9.0069    1.5356    5.1992 C   0  0  0  0  0  0  0  0  0  0  0  0
   10.0372    2.0502    5.6088 O   0  0  0  0  0  0  0  0  0  0  0  0
    8.8212    0.0824    5.3840 C   0  0  0  0  0  0  0  0  0  0  0  0
    7.9697   -0.6157    4.6346 C   0  0  0  0  0  0  0  0  0  0  0  0
    7.1507    0.0544    3.6125 C   0  0  0  0  0  0  0  0  0  0  0  0
    6.5224   -0.6111    2.7997 O   0  0  0  0  0  0  0  0  0  0  0  0
    4.0591    7.1523    0.8641 H   0  0  0  0  0  0  0  0  0  0  0  0
    5.5965    7.9895    1.1217 H   0  0  0  0  0  0  0  0  0  0  0  0
    4.1525    8.3694    2.1389 H   0  0  0  0  0  0  0  0  0  0  0  0
    5.8198    8.9769    3.5084 H   0  0  0  0  0  0  0  0  0  0  0  0
    7.6305    9.3524    5.0941 H   0  0  0  0  0  0  0  0  0  0  0  0
    8.9467    7.4682    5.9974 H   0  0  0  0  0  0  0  0  0  0  0  0
    5.2152    3.9937    2.2668 H   0  0  0  0  0  0  0  0  0  0  0  0
    5.4693    1.5542    2.2135 H   0  0  0  0  0  0  0  0  0  0  0  0
    9.2613    3.7233    6.8364 H   0  0  0  0  0  0  0  0  0  0  0  0
    9.1814    5.4496    7.0204 H   0  0  0  0  0  0  0  0  0  0  0  0
   10.3437    4.7859    5.8336 H   0  0  0  0  0  0  0  0  0  0  0  0
    9.4614   -0.4026    6.1167 H   0  0  0  0  0  0  0  0  0  0  0  0
    7.8639   -1.6922    4.7129 H   0  0  0  0  0  0  0  0  0  0  0  0
  1  2  1  0  0  0  0
  1 23  1  0  0  0  0
  1 24  1  0  0  0  0
  1 25  1  0  0  0  0
  2  3  1  0  0  0  0
  3  4  1  0  0  0  0
  3  8  2  0  0  0  0
  4  5  2  0  0  0  0
  4 26  1  0  0  0  0
  5  6  1  0  0  0  0
  5 27  1  0  0  0  0
  6  7  2  0  0  0  0
  6 28  1  0  0  0  0
  7  8  1  0  0  0  0
  7 15  1  0  0  0  0
  8  9  1  0  0  0  0
  9 10  1  0  0  0  0
  9 14  2  0  0  0  0
 10 11  2  0  0  0  0
 10 29  1  0  0  0  0
 11 12  1  0  0  0  0
 11 30  1  0  0  0  0
 12 13  2  0  0  0  0
 12 21  1  0  0  0  0
 13 14  1  0  0  0  0
 13 17  1  0  0  0  0
 14 15  1  0  0  0  0
 15 16  1  0  0  0  0
 16 31  1  0  0  0  0
 16 32  1  0  0  0  0
 16 33  1  0  0  0  0
 17 18  2  0  0  0  0
 17 19  1  0  0  0  0
 19 20  2  0  0  0  0
 19 34  1  0  0  0  0
 20 21  1  0  0  0  0
 20 35  1  0  0  0  0
 21 22  2  0  0  0  0
M  END
>  <Energy>
71.818

$$$$

 OpenBabel04232614443D

 21 22  0  0  1  0  0  0  0  0999 V2000
    0.9948   -0.0027    0.1017 C   0  0  0  0  0  0  0  0  0  0  0  0
    2.5054    0.0540   -0.1190 C   0  0  3  0  0  0  0  0  0  0  0  0
    2.8721    0.1219   -1.6002 C   0  0  0  0  0  0  0  0  0  0  0  0
    2.5691   -0.8114   -2.5864 C   0  0  0  0  0  0  0  0  0  0  0  0
    3.0850   -0.4587   -3.8690 C   0  0  0  0  0  0  0  0  0  0  0  0
    3.7559    0.7322   -3.8182 C   0  0  0  0  0  0  0  0  0  0  0  0
    4.5372    1.5269   -5.1229 Cl  0  0  0  0  0  0  0  0  0  0  0  0
    3.7779    1.4238   -2.2800 S   0  0  0  0  0  0  0  0  0  0  0  0
    3.1856   -1.2080    0.4555 C   0  0  0  0  0  0  0  0  0  0  0  0
    2.8344   -2.3598    0.2185 O   0  0  0  0  0  0  0  0  0  0  0  0
    4.2405   -0.8112    1.2317 N   0  0  0  0  0  0  0  0  0  0  0  0
    5.2380   -1.8809    2.0495 Cl  0  0  0  0  0  0  0  0  0  0  0  0
    4.2067    0.5390    1.4588 C   0  0  0  0  0  0  0  0  0  0  0  0
    4.9074    1.1693    2.2399 O   0  0  0  0  0  0  0  0  0  0  0  0
    3.1744    1.0579    0.6796 N   0  0  0  0  0  0  0  0  0  0  0  0
    2.6256    2.6404    0.8709 Cl  0  0  0  0  0  0  0  0  0  0  0  0
    0.5441   -0.8711   -0.3924 H   0  0  0  0  0  0  0  0  0  0  0  0
    0.4980    0.8907   -0.2936 H   0  0  0  0  0  0  0  0  0  0  0  0
    0.7514   -0.0759    1.1682 H   0  0  0  0  0  0  0  0  0  0  0  0
    2.0126   -1.7241   -2.3953 H   0  0  0  0  0  0  0  0  0  0  0  0
    2.9700   -1.0517   -4.7680 H   0  0  0  0  0  0  0  0  0  0  0  0
  1  2  1  0  0  0  0
  1 17  1  0  0  0  0
  1 18  1  0  0  0  0
  1 19  1  0  0  0  0
  2  3  1  0  0  0  0
  2  9  1  0  0  0  0
  2 15  1  0  0  0  0
  3  4  2  0  0  0  0
  3  8  1  0  0  0  0
  4  5  1  0  0  0  0
  4 20  1  0  0  0  0
  5  6  2  0  0  0  0
  5 21  1  0  0  0  0
  6  7  1  0  0  0  0
  6  8  1  0  0  0  0
  9 10  2  0  0  0  0
  9 11  1  0  0  0  0
 11 12  1  0  0  0  0
 11 13  1  0  0  0  0
 13 14  2  0  0  0  0
 13 15  1  0  0  0  0
 15 16  1  0  0  0  0
M  END
>  <Energy>
17.5112

$$$$

 OpenBabel04232614443D

 44 46  0  0  1  0  0  0  0  0999 V2000
   10.8654  -16.3515    0.4551 C   0  0  0  0  0  0  0  0  0  0  0  0
    9.5586  -16.7413    1.1227 C   0  0  0  0  0  0  0  0  0  0  0  0
    8.7209  -15.5854    1.1623 O   0  0  0  0  0  0  0  0  0  0  0  0
    8.8913  -14.7575    2.2240 C   0  0  0  0  0  0  0  0  0  0  0  0
    9.4869  -15.0358    3.2599 O   0  0  0  0  0  0  0  0  0  0  0  0
    8.3014  -13.4244    1.9024 C   0  0  0  0  0  0  0  0  0  0  0  0
    7.8435  -13.1508    0.6096 N   0  0  0  0  0  0  0  0  0  0  0  0
    7.5406  -11.8888    0.6427 C   0  0  0  0  0  0  0  0  0  0  0  0
    7.2150  -11.0357   -0.4950 C   0  0  0  0  0  0  0  0  0  0  0  0
    6.8080   -9.8085   -0.1471 C   0  0  0  0  0  0  0  0  0  0  0  0
    6.5702   -9.3744    1.1518 N   0  0  0  0  0  0  0  0  0  0  0  0
    7.1589  -10.0724    2.2212 C   0  0  0  0  0  0  0  0  0  0  0  0
    7.3951   -9.3444    3.5122 C   0  0  0  0  0  0  0  0  0  0  0  0
    7.6439  -11.3120    2.0108 C   0  0  0  0  0  0  0  0  0  0  0  0
    8.2867  -12.3665    2.7496 C   0  0  0  0  0  0  0  0  0  0  0  0
    8.9319  -12.2489    4.0828 C   0  0  0  0  0  0  0  0  0  0  0  0
    5.2170   -8.7396    1.1131 C   0  0  3  0  0  0  0  0  0  0  0  0
    5.0875   -7.4226    1.8556 C   0  0  0  0  0  0  0  0  0  0  0  0
    5.0923   -8.4716   -0.4036 C   0  0  0  0  0  0  0  0  0  0  0  0
    3.7579   -8.5850   -1.0687 C   0  0  0  0  0  0  0  0  0  0  0  0
    6.2100   -8.8610   -1.0593 C   0  0  0  0  0  0  0  0  0  0  0  0
    7.2259   -7.8074   -1.4584 C   0  0  0  0  0  0  0  0  0  0  0  0
   11.5223  -17.2155    0.3373 H   0  0  0  0  0  0  0  0  0  0  0  0
   11.3870  -15.5869    1.0410 H   0  0  0  0  0  0  0  0  0  0  0  0
   10.6727  -15.9116   -0.5301 H   0  0  0  0  0  0  0  0  0  0  0  0
    9.7231  -17.1639    2.1199 H   0  0  0  0  0  0  0  0  0  0  0  0
    9.0454  -17.5005    0.5240 H   0  0  0  0  0  0  0  0  0  0  0  0
    7.2365  -11.4311   -1.4959 H   0  0  0  0  0  0  0  0  0  0  0  0
    6.9834   -8.3352    3.5118 H   0  0  0  0  0  0  0  0  0  0  0  0
    8.4740   -9.2043    3.6591 H   0  0  0  0  0  0  0  0  0  0  0  0
    6.9808   -9.8827    4.3687 H   0  0  0  0  0  0  0  0  0  0  0  0
    9.1201  -11.2110    4.3610 H   0  0  0  0  0  0  0  0  0  0  0  0
    9.9186  -12.7242    4.0765 H   0  0  0  0  0  0  0  0  0  0  0  0
    8.3186  -12.7092    4.8602 H   0  0  0  0  0  0  0  0  0  0  0  0
    4.4566   -9.4580    1.4361 H   0  0  0  0  0  0  0  0  0  0  0  0
    5.1720   -7.5554    2.9354 H   0  0  0  0  0  0  0  0  0  0  0  0
    4.0979   -6.9834    1.6761 H   0  0  0  0  0  0  0  0  0  0  0  0
    5.8371   -6.6907    1.5362 H   0  0  0  0  0  0  0  0  0  0  0  0
    3.4751   -9.6415   -1.1582 H   0  0  0  0  0  0  0  0  0  0  0  0
    3.7819   -8.1551   -2.0758 H   0  0  0  0  0  0  0  0  0  0  0  0
    2.9821   -8.0724   -0.4962 H   0  0  0  0  0  0  0  0  0  0  0  0
    6.9244   -7.2996   -2.3771 H   0  0  0  0  0  0  0  0  0  0  0  0
    8.2193   -8.2440   -1.6198 H   0  0  0  0  0  0  0  0  0  0  0  0
    7.3397   -7.0532   -0.6663 H   0  0  0  0  0  0  0  0  0  0  0  0
  1  2  1  0  0  0  0
  1 23  1  0  0  0  0
  1 24  1  0  0  0  0
  1 25  1  0  0  0  0
  2  3  1  0  0  0  0
  2 26  1  0  0  0  0
  2 27  1  0  0  0  0
  3  4  1  0  0  0  0
  4  5  2  0  0  0  0
  4  6  1  0  0  0  0
  6  7  1  0  0  0  0
  6 15  2  0  0  0  0
  7  8  2  0  0  0  0
  8  9  1  0  0  0  0
  8 14  1  0  0  0  0
  9 10  2  0  0  0  0
  9 28  1  0  0  0  0
 10 11  1  0  0  0  0
 10 21  1  0  0  0  0
 11 12  1  0  0  0  0
 11 17  1  0  0  0  0
 12 13  1  0  0  0  0
 12 14  2  0  0  0  0
 13 29  1  0  0  0  0
 13 30  1  0  0  0  0
 13 31  1  0  0  0  0
 14 15  1  0  0  0  0
 15 16  1  0  0  0  0
 16 32  1  0  0  0  0
 16 33  1  0  0  0  0
 16 34  1  0  0  0  0
 17 18  1  0  0  0  0
 17 19  1  0  0  0  0
 17 35  1  0  0  0  0
 18 36  1  0  0  0  0
 18 37  1  0  0  0  0
 18 38  1  0  0  0  0
 19 20  1  0  0  0  0
 19 21  2  3  0  0  0
 20 39  1  0  0  0  0
 20 40  1  0  0  0  0
 20 41  1  0  0  0  0
 21 22  1  0  0  0  0
 22 42  1  0  0  0  0
 22 43  1  0  0  0  0
 22 44  1  0  0  0  0
M  END
>  <Energy>
143.645

$$$$

 OpenBabel04232614443D

 31 34  0  0  0  0  0  0  0  0999 V2000
    1.2576   -0.3171   -0.3759 Cl  0  0  0  0  0  0  0  0  0  0  0  0
    2.9736   -0.2256   -0.1947 C   0  0  0  0  0  0  0  0  0  0  0  0
    3.7580   -0.9885   -1.0627 C   0  0  0  0  0  0  0  0  0  0  0  0
    5.1464   -0.9629   -0.9526 C   0  0  0  0  0  0  0  0  0  0  0  0
    5.7513   -0.1863    0.0333 C   0  0  0  0  0  0  0  0  0  0  0  0
    4.9819    0.5969    0.9073 C   0  0  0  0  0  0  0  0  0  0  0  0
    3.5727    0.5925    0.7747 C   0  0  0  0  0  0  0  0  0  0  0  0
    2.7477    1.4975    1.6633 C   0  0  0  0  0  0  0  0  0  0  0  0
    3.5870    2.5445    2.2823 N   0  0  0  0  0  0  0  0  0  0  0  0
    4.7447    1.9138    2.9038 C   0  0  0  0  0  0  0  0  0  0  0  0
    5.6386    1.4325    1.8574 N   0  0  0  0  0  0  0  0  0  0  0  0
    6.2766    2.5938    1.2023 C   0  0  0  0  0  0  0  0  0  0  0  0
    5.2434    3.6157    0.7780 C   0  0  0  0  0  0  0  0  0  0  0  0
    5.5385    4.6046   -0.1705 C   0  0  0  0  0  0  0  0  0  0  0  0
    7.1179    4.7727   -0.8520 Cl  0  0  0  0  0  0  0  0  0  0  0  0
    4.5474    5.4853   -0.6101 C   0  0  0  0  0  0  0  0  0  0  0  0
    3.2590    5.4031   -0.0847 C   0  0  0  0  0  0  0  0  0  0  0  0
    2.9646    4.4519    0.8900 C   0  0  0  0  0  0  0  0  0  0  0  0
    3.9434    3.5495    1.3353 C   0  0  0  0  0  0  0  0  0  0  0  0
    3.2924   -1.5993   -1.8312 H   0  0  0  0  0  0  0  0  0  0  0  0
    5.7580   -1.5458   -1.6367 H   0  0  0  0  0  0  0  0  0  0  0  0
    6.8355   -0.1815    0.1173 H   0  0  0  0  0  0  0  0  0  0  0  0
    2.3027    0.8885    2.4615 H   0  0  0  0  0  0  0  0  0  0  0  0
    1.9165    1.9534    1.1132 H   0  0  0  0  0  0  0  0  0  0  0  0
    4.4386    1.0850    3.5561 H   0  0  0  0  0  0  0  0  0  0  0  0
    5.2589    2.6253    3.5651 H   0  0  0  0  0  0  0  0  0  0  0  0
    6.8873    2.2633    0.3556 H   0  0  0  0  0  0  0  0  0  0  0  0
    6.9597    3.0681    1.9197 H   0  0  0  0  0  0  0  0  0  0  0  0
    4.7704    6.2313   -1.3674 H   0  0  0  0  0  0  0  0  0  0  0  0
    2.4836    6.0788   -0.4364 H   0  0  0  0  0  0  0  0  0  0  0  0
    1.9591    4.4039    1.3015 H   0  0  0  0  0  0  0  0  0  0  0  0
  1  2  1  0  0  0  0
  2  3  1  0  0  0  0
  2  7  2  0  0  0  0
  3  4  2  0  0  0  0
  3 20  1  0  0  0  0
  4  5  1  0  0  0  0
  4 21  1  0  0  0  0
  5  6  2  0  0  0  0
  5 22  1  0  0  0  0
  6  7  1  0  0  0  0
  6 11  1  0  0  0  0
  7  8  1  0  0  0  0
  8  9  1  0  0  0  0
  8 23  1  0  0  0  0
  8 24  1  0  0  0  0
  9 10  1  0  0  0  0
  9 19  1  0  0  0  0
 10 11  1  0  0  0  0
 10 25  1  0  0  0  0
 10 26  1  0  0  0  0
 11 12  1  0  0  0  0
 12 13  1  0  0  0  0
 12 27  1  0  0  0  0
 12 28  1  0  0  0  0
 13 14  1  0  0  0  0
 13 19  2  0  0  0  0
 14 15  1  0  0  0  0
 14 16  2  0  0  0  0
 16 17  1  0  0  0  0
 16 29  1  0  0  0  0
 17 18  2  0  0  0  0
 17 30  1  0  0  0  0
 18 19  1  0  0  0  0
 18 31  1  0  0  0  0
M  END
>  <Energy>
-28.6334

$$$$

 OpenBabel04232614443D

 35 39  0  0  0  0  0  0  0  0999 V2000
    0.2453   -1.2012   -0.3852 C   0  0  0  0  0  0  0  0  0  0  0  0
    0.0541    0.1727   -0.3046 C   0  0  0  0  0  0  0  0  0  0  0  0
   -1.2285    0.7026   -0.4633 C   0  0  0  0  0  0  0  0  0  0  0  0
   -2.3326   -0.1325   -0.7097 C   0  0  0  0  0  0  0  0  0  0  0  0
   -3.6639    0.4696   -0.7423 C   0  0  0  0  0  0  0  0  0  0  0  0
   -4.0249    1.6236   -0.2123 N   0  0  0  0  0  0  0  0  0  0  0  0
   -5.3771    1.6544   -0.3826 C   0  0  0  0  0  0  0  0  0  0  0  0
   -6.3107    2.5963    0.0574 C   0  0  0  0  0  0  0  0  0  0  0  0
   -7.6599    2.3662   -0.2216 C   0  0  0  0  0  0  0  0  0  0  0  0
   -8.0858    1.2305   -0.9360 C   0  0  0  0  0  0  0  0  0  0  0  0
   -9.4518    0.9961   -1.1542 C   0  0  0  0  0  0  0  0  0  0  0  0
   -9.8725   -0.1274   -1.8755 C   0  0  0  0  0  0  0  0  0  0  0  0
   -8.9334   -1.0271   -2.3888 C   0  0  0  0  0  0  0  0  0  0  0  0
   -7.5694   -0.8360   -2.1546 C   0  0  0  0  0  0  0  0  0  0  0  0
   -7.1455    0.2857   -1.4189 C   0  0  0  0  0  0  0  0  0  0  0  0
   -5.7987    0.5368   -1.0862 C   0  0  0  0  0  0  0  0  0  0  0  0
   -4.6872   -0.2391   -1.3228 O   0  0  0  0  0  0  0  0  0  0  0  0
  -10.4311    1.9425   -0.5147 C   0  0  0  0  0  0  0  0  0  0  0  0
   -9.7891    3.3245   -0.4201 C   0  0  0  0  0  0  0  0  0  0  0  0
   -8.5391    3.3013    0.2806 O   0  0  0  0  0  0  0  0  0  0  0  0
   -2.1212   -1.5113   -0.8143 C   0  0  0  0  0  0  0  0  0  0  0  0
   -0.8375   -2.0442   -0.6452 C   0  0  0  0  0  0  0  0  0  0  0  0
    1.2392   -1.6203   -0.2379 H   0  0  0  0  0  0  0  0  0  0  0  0
    0.8900    0.8346   -0.0975 H   0  0  0  0  0  0  0  0  0  0  0  0
   -1.3712    1.7779   -0.3706 H   0  0  0  0  0  0  0  0  0  0  0  0
   -5.9931    3.4677    0.6175 H   0  0  0  0  0  0  0  0  0  0  0  0
  -10.9324   -0.3103   -2.0378 H   0  0  0  0  0  0  0  0  0  0  0  0
   -9.2703   -1.8904   -2.9582 H   0  0  0  0  0  0  0  0  0  0  0  0
   -6.8481   -1.5524   -2.5401 H   0  0  0  0  0  0  0  0  0  0  0  0
  -10.6626    1.5663    0.4890 H   0  0  0  0  0  0  0  0  0  0  0  0
  -11.3603    2.0030   -1.0909 H   0  0  0  0  0  0  0  0  0  0  0  0
  -10.4545    3.9992    0.1292 H   0  0  0  0  0  0  0  0  0  0  0  0
   -9.6299    3.7642   -1.4132 H   0  0  0  0  0  0  0  0  0  0  0  0
   -2.9554   -2.1873   -0.9873 H   0  0  0  0  0  0  0  0  0  0  0  0
   -0.6843   -3.1189   -0.6972 H   0  0  0  0  0  0  0  0  0  0  0  0
  1  2  1  0  0  0  0
  1 22  2  0  0  0  0
  1 23  1  0  0  0  0
  2  3  2  0  0  0  0
  2 24  1  0  0  0  0
  3  4  1  0  0  0  0
  3 25  1  0  0  0  0
  4  5  1  0  0  0  0
  4 21  2  0  0  0  0
  5  6  2  0  0  0  0
  5 17  1  0  0  0  0
  6  7  1  0  0  0  0
  7  8  1  0  0  0  0
  7 16  2  0  0  0  0
  8  9  2  0  0  0  0
  8 26  1  0  0  0  0
  9 10  1  0  0  0  0
  9 20  1  0  0  0  0
 10 11  1  0  0  0  0
 10 15  2  0  0  0  0
 11 12  2  0  0  0  0
 11 18  1  0  0  0  0
 12 13  1  0  0  0  0
 12 27  1  0  0  0  0
 13 14  2  0  0  0  0
 13 28  1  0  0  0  0
 14 15  1  0  0  0  0
 14 29  1  0  0  0  0
 15 16  1  0  0  0  0
 16 17  1  0  0  0  0
 18 19  1  0  0  0  0
 18 30  1  0  0  0  0
 18 31  1  0  0  0  0
 19 20  1  0  0  0  0
 19 32  1  0  0  0  0
 19 33  1  0  0  0  0
 21 22  1  0  0  0  0
 21 34  1  0  0  0  0
 22 35  1  0  0  0  0
M  END
>  <Energy>
75.4972

$$$$

 OpenBabel04232614443D

 36 38  0  0  0  0  0  0  0  0999 V2000
    0.6761    0.2431    0.2906 C   0  0  0  0  0  0  0  0  0  0  0  0
    2.5519   -0.0448    0.1483 Si  0  0  0  0  0  0  0  0  0  0  0  0
    3.0253   -1.0172    1.6838 C   0  0  0  0  0  0  0  0  0  0  0  0
    2.8285   -1.0451   -1.4088 C   0  0  0  0  0  0  0  0  0  0  0  0
    3.4835    1.6636    0.0690 C   0  0  0  0  0  0  0  0  0  0  0  0
    2.6990    2.8247    0.2502 C   0  0  0  0  0  0  0  0  0  0  0  0
    3.2661    4.0981    0.2128 C   0  0  0  0  0  0  0  0  0  0  0  0
    4.6330    4.2437    0.0105 C   0  0  0  0  0  0  0  0  0  0  0  0
    5.4504    3.1231   -0.1722 C   0  0  0  0  0  0  0  0  0  0  0  0
    4.8769    1.8474   -0.1634 C   0  0  0  0  0  0  0  0  0  0  0  0
    5.9737    0.5174   -0.5081 S   0  0  0  0  0  0  0  0  0  0  0  0
    5.7397    0.1087   -1.8794 O   0  0  0  0  0  0  0  0  0  0  0  0
    5.8975   -0.4180    0.5962 O   0  0  0  0  0  0  0  0  0  0  0  0
    7.5902    1.1500   -0.4585 C   0  0  0  0  0  0  0  0  0  0  0  0
    8.6724    0.2625   -0.4714 C   0  0  0  0  0  0  0  0  0  0  0  0
    9.9666    0.7649   -0.4190 C   0  0  0  0  0  0  0  0  0  0  0  0
   10.1667    2.1432   -0.3524 C   0  0  0  0  0  0  0  0  0  0  0  0
    9.0709    3.0132   -0.3343 C   0  0  0  0  0  0  0  0  0  0  0  0
    7.7643    2.5165   -0.3797 C   0  0  0  0  0  0  0  0  0  0  0  0
    6.7715    3.4517   -0.3653 O   0  0  0  0  0  0  0  0  0  0  0  0
    0.1601   -0.7220    0.3106 H   0  0  0  0  0  0  0  0  0  0  0  0
    0.3039    0.8173   -0.5618 H   0  0  0  0  0  0  0  0  0  0  0  0
    0.4387    0.7751    1.2164 H   0  0  0  0  0  0  0  0  0  0  0  0
    2.2889   -1.8057    1.8683 H   0  0  0  0  0  0  0  0  0  0  0  0
    3.0532   -0.3670    2.5629 H   0  0  0  0  0  0  0  0  0  0  0  0
    3.9949   -1.5069    1.5833 H   0  0  0  0  0  0  0  0  0  0  0  0
    2.0781   -1.8371   -1.4917 H   0  0  0  0  0  0  0  0  0  0  0  0
    3.8089   -1.5267   -1.4081 H   0  0  0  0  0  0  0  0  0  0  0  0
    2.7496   -0.4117   -2.2976 H   0  0  0  0  0  0  0  0  0  0  0  0
    1.6243    2.7668    0.4157 H   0  0  0  0  0  0  0  0  0  0  0  0
    2.6390    4.9769    0.3423 H   0  0  0  0  0  0  0  0  0  0  0  0
    5.0658    5.2420   -0.0109 H   0  0  0  0  0  0  0  0  0  0  0  0
    8.5022   -0.8127   -0.5228 H   0  0  0  0  0  0  0  0  0  0  0  0
   10.8165    0.0872   -0.4299 H   0  0  0  0  0  0  0  0  0  0  0  0
   11.1777    2.5424   -0.3125 H   0  0  0  0  0  0  0  0  0  0  0  0
    9.2416    4.0861   -0.2809 H   0  0  0  0  0  0  0  0  0  0  0  0
  1  2  1  0  0  0  0
  1 21  1  0  0  0  0
  1 22  1  0  0  0  0
  1 23  1  0  0  0  0
  2  3  1  0  0  0  0
  2  4  1  0  0  0  0
  2  5  1  0  0  0  0
  3 24  1  0  0  0  0
  3 25  1  0  0  0  0
  3 26  1  0  0  0  0
  4 27  1  0  0  0  0
  4 28  1  0  0  0  0
  4 29  1  0  0  0  0
  5  6  1  0  0  0  0
  5 10  2  0  0  0  0
  6  7  2  0  0  0  0
  6 30  1  0  0  0  0
  7  8  1  0  0  0  0
  7 31  1  0  0  0  0
  8  9  2  0  0  0  0
  8 32  1  0  0  0  0
  9 10  1  0  0  0  0
  9 20  1  0  0  0  0
 10 11  1  0  0  0  0
 11 12  2  0  0  0  0
 11 13  2  0  0  0  0
 11 14  1  0  0  0  0
 14 15  1  0  0  0  0
 14 19  2  0  0  0  0
 15 16  2  0  0  0  0
 15 33  1  0  0  0  0
 16 17  1  0  0  0  0
 16 34  1  0  0  0  0
 17 18  2  0  0  0  0
 17 35  1  0  0  0  0
 18 19  1  0  0  0  0
 18 36  1  0  0  0  0
 19 20  1  0  0  0  0
M  END
>  <Energy>
70.4013

$$$$

 OpenBabel04232614443D

 35 39  0  0  0  0  0  0  0  0999 V2000
    1.0591    0.9818    0.0314 O   0  0  0  0  0  0  0  0  0  0  0  0
    2.2733    0.8171    0.0300 C   0  0  0  0  0  0  0  0  0  0  0  0
    2.8217   -0.5614    0.0282 C   0  0  0  0  0  0  0  0  0  0  0  0
    1.9806   -1.6779    0.0237 C   0  0  0  0  0  0  0  0  0  0  0  0
    2.5397   -2.9539    0.0234 C   0  0  0  0  0  0  0  0  0  0  0  0
    3.9187   -3.0645    0.0293 C   0  0  0  0  0  0  0  0  0  0  0  0
    4.7509   -2.0027    0.0311 N   0  0  0  0  0  0  0  0  0  0  0  0
    4.2006   -0.7566    0.0291 C   0  0  0  0  0  0  0  0  0  0  0  0
    5.1173    0.3951    0.0231 C   0  0  0  0  0  0  0  0  0  0  0  0
    6.4500    0.1377    0.0162 N   0  0  0  0  0  0  0  0  0  0  0  0
    7.2905    1.1841    0.0052 C   0  0  0  0  0  0  0  0  0  0  0  0
    6.8668    2.5005    0.0001 C   0  0  0  0  0  0  0  0  0  0  0  0
    5.4901    2.7919    0.0097 C   0  0  0  0  0  0  0  0  0  0  0  0
    4.9572    4.1117    0.0092 C   0  0  0  0  0  0  0  0  0  0  0  0
    3.5761    4.2670    0.0272 C   0  0  0  0  0  0  0  0  0  0  0  0
    2.7198    3.2111    0.0363 N   0  0  0  0  0  0  0  0  0  0  0  0
    3.2425    1.9607    0.0293 C   0  0  0  0  0  0  0  0  0  0  0  0
    4.6054    1.6985    0.0212 C   0  0  0  0  0  0  0  0  0  0  0  0
    2.9138    5.6109    0.0611 C   0  0  0  0  0  0  0  0  0  0  0  0
    3.7889    6.8564    0.0057 C   0  0  0  0  0  0  0  0  0  0  0  0
    5.2974    6.6936   -0.0057 C   0  0  0  0  0  0  0  0  0  0  0  0
    5.8847    5.2914   -0.0147 C   0  0  0  0  0  0  0  0  0  0  0  0
    0.8995   -1.5579    0.0187 H   0  0  0  0  0  0  0  0  0  0  0  0
    1.9169   -3.8418    0.0185 H   0  0  0  0  0  0  0  0  0  0  0  0
    4.4098   -4.0334    0.0318 H   0  0  0  0  0  0  0  0  0  0  0  0
    8.3466    0.9323   -0.0002 H   0  0  0  0  0  0  0  0  0  0  0  0
    7.6199    3.2811   -0.0095 H   0  0  0  0  0  0  0  0  0  0  0  0
    2.3084    5.6591    0.9752 H   0  0  0  0  0  0  0  0  0  0  0  0
    2.2016    5.6572   -0.7725 H   0  0  0  0  0  0  0  0  0  0  0  0
    3.5200    7.5053    0.8509 H   0  0  0  0  0  0  0  0  0  0  0  0
    3.5000    7.4435   -0.8769 H   0  0  0  0  0  0  0  0  0  0  0  0
    5.6985    7.2377   -0.8724 H   0  0  0  0  0  0  0  0  0  0  0  0
    5.7145    7.2340    0.8554 H   0  0  0  0  0  0  0  0  0  0  0  0
    6.5561    5.2125    0.8506 H   0  0  0  0  0  0  0  0  0  0  0  0
    6.5141    5.2050   -0.9107 H   0  0  0  0  0  0  0  0  0  0  0  0
  1  2  2  0  0  0  0
  2  3  1  0  0  0  0
  2 17  1  0  0  0  0
  3  4  1  0  0  0  0
  3  8  2  0  0  0  0
  4  5  2  0  0  0  0
  4 23  1  0  0  0  0
  5  6  1  0  0  0  0
  5 24  1  0  0  0  0
  6  7  2  0  0  0  0
  6 25  1  0  0  0  0
  7  8  1  0  0  0  0
  8  9  1  0  0  0  0
  9 10  1  0  0  0  0
  9 18  2  0  0  0  0
 10 11  2  0  0  0  0
 11 12  1  0  0  0  0
 11 26  1  0  0  0  0
 12 13  2  0  0  0  0
 12 27  1  0  0  0  0
 13 14  1  0  0  0  0
 13 18  1  0  0  0  0
 14 15  2  0  0  0  0
 14 22  1  0  0  0  0
 15 16  1  0  0  0  0
 15 19  1  0  0  0  0
 16 17  2  0  0  0  0
 17 18  1  0  0  0  0
 19 20  1  0  0  0  0
 19 28  1  0  0  0  0
 19 29  1  0  0  0  0
 20 21  1  0  0  0  0
 20 30  1  0  0  0  0
 20 31  1  0  0  0  0
 21 22  1  0  0  0  0
 21 32  1  0  0  0  0
 21 33  1  0  0  0  0
 22 34  1  0  0  0  0
 22 35  1  0  0  0  0
M  END
>  <Energy>
120.446

$$$$

 OpenBabel04232614443D

 39 41  0  0  1  0  0  0  0  0999 V2000
    3.8721   -0.2975    0.1190 C   0  0  0  0  0  0  0  0  0  0  0  0
    2.6895    0.6187    0.3980 C   0  0  0  0  0  0  0  0  0  0  0  0
    2.3461    0.6806    1.8651 C   0  0  0  0  0  0  0  0  0  0  0  0
    2.8609    1.6831    2.6916 C   0  0  0  0  0  0  0  0  0  0  0  0
    2.5488    1.7243    4.0592 C   0  0  0  0  0  0  0  0  0  0  0  0
    1.7146    0.7577    4.6291 C   0  0  0  0  0  0  0  0  0  0  0  0
    1.3617    0.6807    6.1080 C   0  0  3  0  0  0  0  0  0  0  0  0
    1.3525    2.0226    6.9697 C   0  0  0  0  0  0  0  0  0  0  0  0
    2.7776    2.2229    7.4590 C   0  0  0  0  0  0  0  0  0  0  0  0
    3.9598    2.3891    7.8650 N   0  0  0  0  0  0  0  0  0  0  0  0
    0.5380    1.7269    8.0235 C   0  0  0  0  0  0  0  0  0  0  0  0
   -0.7538    2.1867    8.1474 N   0  0  0  0  0  0  0  0  0  0  0  0
    0.8059    0.5584    8.7909 O   0  0  0  0  0  0  0  0  0  0  0  0
    1.8460   -0.2711    8.3448 C   0  0  0  0  0  0  0  0  0  0  0  0
    2.7472   -0.7406    9.2984 C   0  0  0  0  0  0  0  0  0  0  0  0
    3.9864   -1.2415    8.8824 C   0  0  0  0  0  0  0  0  0  0  0  0
    5.0311   -1.3359    9.8275 N   0  0  0  0  0  0  0  0  0  0  0  0
    4.2677   -1.3529    7.5132 C   0  0  0  0  0  0  0  0  0  0  0  0
    3.3416   -0.9367    6.5492 C   0  0  0  0  0  0  0  0  0  0  0  0
    2.1480   -0.3327    6.9616 C   0  0  0  0  0  0  0  0  0  0  0  0
    1.2125   -0.2547    3.7854 C   0  0  0  0  0  0  0  0  0  0  0  0
    1.5208   -0.2983    2.4292 C   0  0  0  0  0  0  0  0  0  0  0  0
    4.0715   -0.3395   -0.9569 H   0  0  0  0  0  0  0  0  0  0  0  0
    3.6793   -1.3186    0.4656 H   0  0  0  0  0  0  0  0  0  0  0  0
    4.7779    0.0619    0.6182 H   0  0  0  0  0  0  0  0  0  0  0  0
    1.8150    0.2688   -0.1653 H   0  0  0  0  0  0  0  0  0  0  0  0
    2.9057    1.6266    0.0246 H   0  0  0  0  0  0  0  0  0  0  0  0
    3.5167    2.4463    2.2775 H   0  0  0  0  0  0  0  0  0  0  0  0
    2.9882    2.5218    4.6610 H   0  0  0  0  0  0  0  0  0  0  0  0
    0.3193    0.3137    6.1005 H   0  0  0  0  0  0  0  0  0  0  0  0
   -1.1491    2.5590    7.2885 H   0  0  0  0  0  0  0  0  0  0  0  0
   -1.3500    1.4912    8.5886 H   0  0  0  0  0  0  0  0  0  0  0  0
    2.5614   -0.5709   10.3540 H   0  0  0  0  0  0  0  0  0  0  0  0
    5.3234   -0.3949   10.0952 H   0  0  0  0  0  0  0  0  0  0  0  0
    5.8401   -1.8295    9.4616 H   0  0  0  0  0  0  0  0  0  0  0  0
    5.2524   -1.6760    7.1821 H   0  0  0  0  0  0  0  0  0  0  0  0
    3.6475   -0.9385    5.5046 H   0  0  0  0  0  0  0  0  0  0  0  0
    0.5779   -1.0428    4.1953 H   0  0  0  0  0  0  0  0  0  0  0  0
    1.1211   -1.1018    1.8146 H   0  0  0  0  0  0  0  0  0  0  0  0
  1  2  1  0  0  0  0
  1 23  1  0  0  0  0
  1 24  1  0  0  0  0
  1 25  1  0  0  0  0
  2  3  1  0  0  0  0
  2 26  1  0  0  0  0
  2 27  1  0  0  0  0
  3  4  1  0  0  0  0
  3 22  2  0  0  0  0
  4  5  2  0  0  0  0
  4 28  1  0  0  0  0
  5  6  1  0  0  0  0
  5 29  1  0  0  0  0
  6  7  1  0  0  0  0
  6 21  2  0  0  0  0
  7  8  1  0  0  0  0
  7 20  1  0  0  0  0
  7 30  1  0  0  0  0
  8  9  1  0  0  0  0
  8 11  2  3  0  0  0
  9 10  3  0  0  0  0
 11 12  1  0  0  0  0
 11 13  1  0  0  0  0
 12 31  1  0  0  0  0
 12 32  1  0  0  0  0
 13 14  1  0  0  0  0
 14 15  1  0  0  0  0
 14 20  2  0  0  0  0
 15 16  2  0  0  0  0
 15 33  1  0  0  0  0
 16 17  1  0  0  0  0
 16 18  1  0  0  0  0
 17 34  1  0  0  0  0
 17 35  1  0  0  0  0
 18 19  2  0  0  0  0
 18 36  1  0  0  0  0
 19 20  1  0  0  0  0
 19 37  1  0  0  0  0
 21 22  1  0  0  0  0
 21 38  1  0  0  0  0
 22 39  1  0  0  0  0
M  END
>  <Energy>
257.309

$$$$

 OpenBabel04232614443D

 42 45  0  0  0  0  0  0  0  0999 V2000
    1.6015   -2.1305   -2.5093 C   0  0  0  0  0  0  0  0  0  0  0  0
    2.9900   -1.8440   -2.2380 N   0  0  0  0  0  0  0  0  0  0  0  0
    3.9409   -1.5452   -3.1756 C   0  0  0  0  0  0  0  0  0  0  0  0
    5.1252   -1.3285   -2.5042 C   0  0  0  0  0  0  0  0  0  0  0  0
    4.9023   -1.5332   -1.1055 C   0  0  0  0  0  0  0  0  0  0  0  0
    5.6865   -1.4872    0.0774 C   0  0  0  0  0  0  0  0  0  0  0  0
    7.0655   -1.3072    0.1480 N   0  0  0  0  0  0  0  0  0  0  0  0
    7.9317   -1.5658   -1.0126 C   0  0  0  0  0  0  0  0  0  0  0  0
    9.3197   -2.0501   -0.5303 C   0  0  0  0  0  0  0  0  0  0  0  0
    9.8855   -1.0865    0.4300 N   0  0  0  0  0  0  0  0  0  0  0  0
   11.2225   -0.7510    0.4236 C   0  0  0  0  0  0  0  0  0  0  0  0
   11.6541    0.4905    0.9152 C   0  0  0  0  0  0  0  0  0  0  0  0
   12.9922    0.8898    0.8371 C   0  0  0  0  0  0  0  0  0  0  0  0
   13.9369    0.0462    0.2695 C   0  0  0  0  0  0  0  0  0  0  0  0
   13.5459   -1.1977   -0.2093 C   0  0  0  0  0  0  0  0  0  0  0  0
   12.2035   -1.5874   -0.1292 C   0  0  0  0  0  0  0  0  0  0  0  0
    9.0094   -0.7892    1.5817 C   0  0  0  0  0  0  0  0  0  0  0  0
    7.6251   -0.3091    1.0852 C   0  0  0  0  0  0  0  0  0  0  0  0
    4.9802   -1.7478    1.2671 C   0  0  0  0  0  0  0  0  0  0  0  0
    3.6232   -2.0320    1.2482 C   0  0  0  0  0  0  0  0  0  0  0  0
    2.8556   -2.0857    0.1464 N   0  0  0  0  0  0  0  0  0  0  0  0
    3.5399   -1.8320   -0.9852 C   0  0  0  0  0  0  0  0  0  0  0  0
    1.4223   -2.0861   -3.5864 H   0  0  0  0  0  0  0  0  0  0  0  0
    0.9888   -1.3817   -2.0006 H   0  0  0  0  0  0  0  0  0  0  0  0
    1.3746   -3.1335   -2.1379 H   0  0  0  0  0  0  0  0  0  0  0  0
    3.7051   -1.5023   -4.2301 H   0  0  0  0  0  0  0  0  0  0  0  0
    6.0552   -1.0543   -2.9808 H   0  0  0  0  0  0  0  0  0  0  0  0
    8.0474   -0.6458   -1.6008 H   0  0  0  0  0  0  0  0  0  0  0  0
    7.5236   -2.3484   -1.6595 H   0  0  0  0  0  0  0  0  0  0  0  0
    9.9493   -2.1698   -1.4185 H   0  0  0  0  0  0  0  0  0  0  0  0
    9.2222   -3.0307   -0.0472 H   0  0  0  0  0  0  0  0  0  0  0  0
   10.9359    1.1988    1.3202 H   0  0  0  0  0  0  0  0  0  0  0  0
   13.2823    1.8704    1.2060 H   0  0  0  0  0  0  0  0  0  0  0  0
   14.9736    0.3596    0.1933 H   0  0  0  0  0  0  0  0  0  0  0  0
   14.2759   -1.8669   -0.6560 H   0  0  0  0  0  0  0  0  0  0  0  0
   11.9416   -2.5726   -0.5029 H   0  0  0  0  0  0  0  0  0  0  0  0
    9.4265   -0.0404    2.2616 H   0  0  0  0  0  0  0  0  0  0  0  0
    8.8804   -1.7083    2.1692 H   0  0  0  0  0  0  0  0  0  0  0  0
    7.7354    0.6519    0.5650 H   0  0  0  0  0  0  0  0  0  0  0  0
    6.9815   -0.1310    1.9529 H   0  0  0  0  0  0  0  0  0  0  0  0
    5.5018   -1.7853    2.2182 H   0  0  0  0  0  0  0  0  0  0  0  0
    3.1054   -2.2543    2.1756 H   0  0  0  0  0  0  0  0  0  0  0  0
  1  2  1  0  0  0  0
  1 23  1  0  0  0  0
  1 24  1  0  0  0  0
  1 25  1  0  0  0  0
  2  3  1  0  0  0  0
  2 22  1  0  0  0  0
  3  4  2  0  0  0  0
  3 26  1  0  0  0  0
  4  5  1  0  0  0  0
  4 27  1  0  0  0  0
  5  6  1  0  0  0  0
  5 22  2  0  0  0  0
  6  7  1  0  0  0  0
  6 19  2  0  0  0  0
  7  8  1  0  0  0  0
  7 18  1  0  0  0  0
  8  9  1  0  0  0  0
  8 28  1  0  0  0  0
  8 29  1  0  0  0  0
  9 10  1  0  0  0  0
  9 30  1  0  0  0  0
  9 31  1  0  0  0  0
 10 11  1  0  0  0  0
 10 17  1  0  0  0  0
 11 12  1  0  0  0  0
 11 16  2  0  0  0  0
 12 13  2  0  0  0  0
 12 32  1  0  0  0  0
 13 14  1  0  0  0  0
 13 33  1  0  0  0  0
 14 15  2  0  0  0  0
 14 34  1  0  0  0  0
 15 16  1  0  0  0  0
 15 35  1  0  0  0  0
 16 36  1  0  0  0  0
 17 18  1  0  0  0  0
 17 37  1  0  0  0  0
 17 38  1  0  0  0  0
 18 39  1  0  0  0  0
 18 40  1  0  0  0  0
 19 20  1  0  0  0  0
 19 41  1  0  0  0  0
 20 21  2  0  0  0  0
 20 42  1  0  0  0  0
 21 22  1  0  0  0  0
M  END
>  <Energy>
138.695

$$$$

 OpenBabel04232614443D

 34 37  0  0  0  0  0  0  0  0999 V2000
    1.1634   -0.0321    0.0068 O   0  0  0  0  0  0  0  0  0  0  0  0
    2.3847    0.0060   -0.0557 C   0  0  0  0  0  0  0  0  0  0  0  0
    3.2356   -1.1063   -0.1267 N   0  0  0  0  0  0  0  0  0  0  0  0
    2.8305   -2.4944   -0.1463 C   0  0  0  0  0  0  0  0  0  0  0  0
    2.5984   -2.9992   -1.5487 C   0  0  0  0  0  0  0  0  0  0  0  0
    3.6529   -3.5457   -2.2945 C   0  0  0  0  0  0  0  0  0  0  0  0
    3.4498   -3.9547   -3.6138 C   0  0  0  0  0  0  0  0  0  0  0  0
    2.1925   -3.8210   -4.2003 C   0  0  0  0  0  0  0  0  0  0  0  0
    1.1340   -3.2911   -3.4648 C   0  0  0  0  0  0  0  0  0  0  0  0
    1.3351   -2.8807   -2.1460 C   0  0  0  0  0  0  0  0  0  0  0  0
    4.5504   -0.7119   -0.1436 N   0  0  0  0  0  0  0  0  0  0  0  0
    4.4839    0.5883   -0.1015 C   0  0  0  0  0  0  0  0  0  0  0  0
    3.2330    1.1027   -0.0550 N   0  0  0  0  0  0  0  0  0  0  0  0
    2.9055    2.4739    0.0001 C   0  0  0  0  0  0  0  0  0  0  0  0
    1.6161    2.9132    0.3355 C   0  0  0  0  0  0  0  0  0  0  0  0
    1.3188    4.2775    0.4154 C   0  0  0  0  0  0  0  0  0  0  0  0
    2.3002    5.2262    0.1468 C   0  0  0  0  0  0  0  0  0  0  0  0
    3.5781    4.8106   -0.2166 C   0  0  0  0  0  0  0  0  0  0  0  0
    3.8877    3.4456   -0.2870 C   0  0  0  0  0  0  0  0  0  0  0  0
    5.5282    3.0088   -0.8468 S   0  0  0  0  0  0  0  0  0  0  0  0
    5.7024    1.4462    0.0290 C   0  0  0  0  0  0  0  0  0  0  0  0
    1.9143   -2.6034    0.4455 H   0  0  0  0  0  0  0  0  0  0  0  0
    3.6053   -3.0894    0.3513 H   0  0  0  0  0  0  0  0  0  0  0  0
    4.6433   -3.6404   -1.8540 H   0  0  0  0  0  0  0  0  0  0  0  0
    4.2760   -4.3656   -4.1882 H   0  0  0  0  0  0  0  0  0  0  0  0
    2.0393   -4.1221   -5.2332 H   0  0  0  0  0  0  0  0  0  0  0  0
    0.1536   -3.1846   -3.9214 H   0  0  0  0  0  0  0  0  0  0  0  0
    0.5036   -2.4519   -1.5892 H   0  0  0  0  0  0  0  0  0  0  0  0
    0.8173    2.2106    0.5605 H   0  0  0  0  0  0  0  0  0  0  0  0
    0.3158    4.5980    0.6895 H   0  0  0  0  0  0  0  0  0  0  0  0
    2.0688    6.2868    0.2080 H   0  0  0  0  0  0  0  0  0  0  0  0
    4.3327    5.5609   -0.4463 H   0  0  0  0  0  0  0  0  0  0  0  0
    5.8689    1.6434    1.0934 H   0  0  0  0  0  0  0  0  0  0  0  0
    6.5741    0.9103   -0.3575 H   0  0  0  0  0  0  0  0  0  0  0  0
  1  2  2  0  0  0  0
  2  3  1  0  0  0  0
  2 13  1  0  0  0  0
  3  4  1  0  0  0  0
  3 11  1  0  0  0  0
  4  5  1  0  0  0  0
  4 22  1  0  0  0  0
  4 23  1  0  0  0  0
  5  6  1  0  0  0  0
  5 10  2  0  0  0  0
  6  7  2  0  0  0  0
  6 24  1  0  0  0  0
  7  8  1  0  0  0  0
  7 25  1  0  0  0  0
  8  9  2  0  0  0  0
  8 26  1  0  0  0  0
  9 10  1  0  0  0  0
  9 27  1  0  0  0  0
 10 28  1  0  0  0  0
 11 12  2  0  0  0  0
 12 13  1  0  0  0  0
 12 21  1  0  0  0  0
 13 14  1  0  0  0  0
 14 15  1  0  0  0  0
 14 19  2  0  0  0  0
 15 16  2  0  0  0  0
 15 29  1  0  0  0  0
 16 17  1  0  0  0  0
 16 30  1  0  0  0  0
 17 18  2  0  0  0  0
 17 31  1  0  0  0  0
 18 19  1  0  0  0  0
 18 32  1  0  0  0  0
 19 20  1  0  0  0  0
 20 21  1  0  0  0  0
 21 33  1  0  0  0  0
 21 34  1  0  0  0  0
M  END
>  <Energy>
73.7519

$$$$

 OpenBabel04232614443D

 37 40  0  0  0  0  0  0  0  0999 V2000
    1.0992   -0.0154    0.0431 C   0  0  0  0  0  0  0  0  0  0  0  0
    2.5387   -0.0650   -0.0205 N   0  0  0  0  0  0  0  0  0  0  0  0
    3.3292    1.0552   -0.0583 C   0  0  0  0  0  0  0  0  0  0  0  0
    4.6050    0.7540   -0.0547 N   0  0  0  0  0  0  0  0  0  0  0  0
    4.6437   -0.6219    0.0005 C   0  0  0  0  0  0  0  0  0  0  0  0
    5.8435   -1.4513    0.0705 C   0  0  0  0  0  0  0  0  0  0  0  0
    6.9719   -0.9649    0.0055 O   0  0  0  0  0  0  0  0  0  0  0  0
    5.6141   -2.8421    0.2264 N   0  0  0  0  0  0  0  0  0  0  0  0
    6.7978   -3.6983    0.1054 C   0  0  0  0  0  0  0  0  0  0  0  0
    7.0653   -4.1014   -1.3344 C   0  0  0  0  0  0  0  0  0  0  0  0
    7.8579   -3.2888   -2.1600 C   0  0  0  0  0  0  0  0  0  0  0  0
    8.0190   -3.5884   -3.5146 C   0  0  0  0  0  0  0  0  0  0  0  0
    7.3898   -4.7034   -4.0627 C   0  0  0  0  0  0  0  0  0  0  0  0
    6.6259   -5.5365   -3.2503 C   0  0  0  0  0  0  0  0  0  0  0  0
    6.4728   -5.2429   -1.8937 C   0  0  0  0  0  0  0  0  0  0  0  0
    4.2799   -3.4108    0.2927 C   0  0  0  0  0  0  0  0  0  0  0  0
    4.0728   -4.7770    0.5401 C   0  0  0  0  0  0  0  0  0  0  0  0
    2.7963   -5.3413    0.4858 C   0  0  0  0  0  0  0  0  0  0  0  0
    1.6988   -4.5474    0.1883 C   0  0  0  0  0  0  0  0  0  0  0  0
    1.8649   -3.1756    0.0038 C   0  0  0  0  0  0  0  0  0  0  0  0
    3.1334   -2.5912    0.0951 C   0  0  0  0  0  0  0  0  0  0  0  0
    3.3713   -1.1584   -0.0074 C   0  0  0  0  0  0  0  0  0  0  0  0
    0.7697    1.0242    0.1104 H   0  0  0  0  0  0  0  0  0  0  0  0
    0.7679   -0.5537    0.9337 H   0  0  0  0  0  0  0  0  0  0  0  0
    0.6955   -0.4600   -0.8700 H   0  0  0  0  0  0  0  0  0  0  0  0
    2.9248    2.0597   -0.0745 H   0  0  0  0  0  0  0  0  0  0  0  0
    6.7248   -4.5769    0.7529 H   0  0  0  0  0  0  0  0  0  0  0  0
    7.6778   -3.1642    0.4880 H   0  0  0  0  0  0  0  0  0  0  0  0
    8.3392   -2.3986   -1.7564 H   0  0  0  0  0  0  0  0  0  0  0  0
    8.6208   -2.9382   -4.1442 H   0  0  0  0  0  0  0  0  0  0  0  0
    7.4908   -4.9194   -5.1226 H   0  0  0  0  0  0  0  0  0  0  0  0
    6.1348   -6.4081   -3.6747 H   0  0  0  0  0  0  0  0  0  0  0  0
    5.8669   -5.9088   -1.2881 H   0  0  0  0  0  0  0  0  0  0  0  0
    4.8881   -5.4457    0.7877 H   0  0  0  0  0  0  0  0  0  0  0  0
    2.6649   -6.4053    0.6676 H   0  0  0  0  0  0  0  0  0  0  0  0
    0.7090   -4.9912    0.1121 H   0  0  0  0  0  0  0  0  0  0  0  0
    0.9808   -2.5943   -0.2208 H   0  0  0  0  0  0  0  0  0  0  0  0
  1  2  1  0  0  0  0
  1 23  1  0  0  0  0
  1 24  1  0  0  0  0
  1 25  1  0  0  0  0
  2  3  1  0  0  0  0
  2 22  1  0  0  0  0
  3  4  2  0  0  0  0
  3 26  1  0  0  0  0
  4  5  1  0  0  0  0
  5  6  1  0  0  0  0
  5 22  2  0  0  0  0
  6  7  2  0  0  0  0
  6  8  1  0  0  0  0
  8  9  1  0  0  0  0
  8 16  1  0  0  0  0
  9 10  1  0  0  0  0
  9 27  1  0  0  0  0
  9 28  1  0  0  0  0
 10 11  1  0  0  0  0
 10 15  2  0  0  0  0
 11 12  2  0  0  0  0
 11 29  1  0  0  0  0
 12 13  1  0  0  0  0
 12 30  1  0  0  0  0
 13 14  2  0  0  0  0
 13 31  1  0  0  0  0
 14 15  1  0  0  0  0
 14 32  1  0  0  0  0
 15 33  1  0  0  0  0
 16 17  1  0  0  0  0
 16 21  2  0  0  0  0
 17 18  2  0  0  0  0
 17 34  1  0  0  0  0
 18 19  1  0  0  0  0
 18 35  1  0  0  0  0
 19 20  2  0  0  0  0
 19 36  1  0  0  0  0
 20 21  1  0  0  0  0
 20 37  1  0  0  0  0
 21 22  1  0  0  0  0
M  END
>  <Energy>
88.8

$$$$

 OpenBabel04232614443D

 43 45  0  0  0  0  0  0  0  0999 V2000
    1.0663    0.0895   -0.1352 C   0  0  0  0  0  0  0  0  0  0  0  0
    2.4118    0.0826   -0.0653 C   0  0  0  0  0  0  0  0  0  0  0  0
    3.0960    1.3795   -0.0259 C   0  0  0  0  0  0  0  0  0  0  0  0
    2.9226    2.2732    1.0405 C   0  0  0  0  0  0  0  0  0  0  0  0
    3.5968    3.4992    1.0577 C   0  0  0  0  0  0  0  0  0  0  0  0
    4.4339    3.8510    0.0003 C   0  0  0  0  0  0  0  0  0  0  0  0
    4.6117    2.9659   -1.0599 C   0  0  0  0  0  0  0  0  0  0  0  0
    3.9643    1.7221   -1.0559 C   0  0  0  0  0  0  0  0  0  0  0  0
    4.2628    0.8109   -2.1762 C   0  0  0  0  0  0  0  0  0  0  0  0
    4.2698    1.3022   -3.3070 O   0  0  0  0  0  0  0  0  0  0  0  0
    4.7961   -0.4503   -1.8857 N   0  0  0  0  0  0  0  0  0  0  0  0
    5.8949   -0.8461   -2.7580 C   0  0  0  0  0  0  0  0  0  0  0  0
    4.3139   -1.3863   -0.8925 C   0  0  0  0  0  0  0  0  0  0  0  0
    4.9723   -2.6237   -0.7513 C   0  0  0  0  0  0  0  0  0  0  0  0
    4.5394   -3.6224    0.1328 C   0  0  0  0  0  0  0  0  0  0  0  0
    3.4166   -3.4392    0.9363 C   0  0  0  0  0  0  0  0  0  0  0  0
    2.9198   -4.5059    1.9278 C   0  0  0  0  0  0  0  0  0  0  0  0
    3.7798   -5.7909    1.9416 C   0  0  0  0  0  0  0  0  0  0  0  0
    2.9390   -3.9304    3.3598 C   0  0  0  0  0  0  0  0  0  0  0  0
    1.4794   -4.9271    1.5681 C   0  0  0  0  0  0  0  0  0  0  0  0
    2.7518   -2.2083    0.8088 C   0  0  0  0  0  0  0  0  0  0  0  0
    3.1687   -1.1887   -0.0911 C   0  0  0  0  0  0  0  0  0  0  0  0
    0.4973    1.0154   -0.1474 H   0  0  0  0  0  0  0  0  0  0  0  0
    0.4859   -0.8254   -0.2118 H   0  0  0  0  0  0  0  0  0  0  0  0
    2.2747    2.0132    1.8744 H   0  0  0  0  0  0  0  0  0  0  0  0
    3.4698    4.1778    1.8952 H   0  0  0  0  0  0  0  0  0  0  0  0
    4.9546    4.8045    0.0041 H   0  0  0  0  0  0  0  0  0  0  0  0
    5.2688    3.2340   -1.8848 H   0  0  0  0  0  0  0  0  0  0  0  0
    6.1894   -0.0390   -3.4376 H   0  0  0  0  0  0  0  0  0  0  0  0
    5.6094   -1.7144   -3.3575 H   0  0  0  0  0  0  0  0  0  0  0  0
    6.7776   -1.0616   -2.1448 H   0  0  0  0  0  0  0  0  0  0  0  0
    5.8538   -2.8697   -1.3369 H   0  0  0  0  0  0  0  0  0  0  0  0
    5.1174   -4.5417    0.1619 H   0  0  0  0  0  0  0  0  0  0  0  0
    4.8173   -5.5792    2.2258 H   0  0  0  0  0  0  0  0  0  0  0  0
    3.7878   -6.2818    0.9614 H   0  0  0  0  0  0  0  0  0  0  0  0
    3.3910   -6.5195    2.6631 H   0  0  0  0  0  0  0  0  0  0  0  0
    3.9470   -3.6008    3.6385 H   0  0  0  0  0  0  0  0  0  0  0  0
    2.6193   -4.6814    4.0917 H   0  0  0  0  0  0  0  0  0  0  0  0
    2.2695   -3.0705    3.4704 H   0  0  0  0  0  0  0  0  0  0  0  0
    1.4279   -5.3290    0.5490 H   0  0  0  0  0  0  0  0  0  0  0  0
    0.7754   -4.0910    1.6284 H   0  0  0  0  0  0  0  0  0  0  0  0
    1.1146   -5.7047    2.2503 H   0  0  0  0  0  0  0  0  0  0  0  0
    1.8857   -2.0162    1.4391 H   0  0  0  0  0  0  0  0  0  0  0  0
  1  2  2  0  0  0  0
  1 23  1  0  0  0  0
  1 24  1  0  0  0  0
  2  3  1  0  0  0  0
  2 22  1  0  0  0  0
  3  4  1  0  0  0  0
  3  8  2  0  0  0  0
  4  5  2  0  0  0  0
  4 25  1  0  0  0  0
  5  6  1  0  0  0  0
  5 26  1  0  0  0  0
  6  7  2  0  0  0  0
  6 27  1  0  0  0  0
  7  8  1  0  0  0  0
  7 28  1  0  0  0  0
  8  9  1  0  0  0  0
  9 10  2  0  0  0  0
  9 11  1  0  0  0  0
 11 12  1  0  0  0  0
 11 13  1  0  0  0  0
 12 29  1  0  0  0  0
 12 30  1  0  0  0  0
 12 31  1  0  0  0  0
 13 14  1  0  0  0  0
 13 22  2  0  0  0  0
 14 15  2  0  0  0  0
 14 32  1  0  0  0  0
 15 16  1  0  0  0  0
 15 33  1  0  0  0  0
 16 17  1  0  0  0  0
 16 21  2  0  0  0  0
 17 18  1  0  0  0  0
 17 19  1  0  0  0  0
 17 20  1  0  0  0  0
 18 34  1  0  0  0  0
 18 35  1  0  0  0  0
 18 36  1  0  0  0  0
 19 37  1  0  0  0  0
 19 38  1  0  0  0  0
 19 39  1  0  0  0  0
 20 40  1  0  0  0  0
 20 41  1  0  0  0  0
 20 42  1  0  0  0  0
 21 22  1  0  0  0  0
 21 43  1  0  0  0  0
M  END
>  <Energy>
103.02

$$$$

 OpenBabel04232614443D

 43 45  0  0  0  0  0  0  0  0999 V2000
    2.5337   -1.4476    0.1238 C   0  0  0  0  0  0  0  0  0  0  0  0
    2.2456    0.0447    0.0876 C   0  0  0  0  0  0  0  0  0  0  0  0
    2.2716    0.6504    1.4139 N   0  0  0  0  0  0  0  0  0  0  0  0
    3.4891    0.5967    2.2217 C   0  0  0  0  0  0  0  0  0  0  0  0
    3.8502    1.9408    2.8417 C   0  0  0  0  0  0  0  0  0  0  0  0
    4.1914    1.9985    4.2003 C   0  0  0  0  0  0  0  0  0  0  0  0
    4.3458    3.2308    4.8274 C   0  0  0  0  0  0  0  0  0  0  0  0
    4.6459    3.2704    6.1323 F   0  0  0  0  0  0  0  0  0  0  0  0
    4.1679    4.4222    4.1332 C   0  0  0  0  0  0  0  0  0  0  0  0
    3.8739    4.3861    2.7716 C   0  0  0  0  0  0  0  0  0  0  0  0
    3.7514    3.1537    2.1188 C   0  0  0  0  0  0  0  0  0  0  0  0
    3.4585    3.1429    0.7346 N   0  0  0  0  0  0  0  0  0  0  0  0
    4.4437    2.8764   -0.2347 C   0  0  0  0  0  0  0  0  0  0  0  0
    4.1639    2.9372   -1.4412 O   0  0  0  0  0  0  0  0  0  0  0  0
    5.8778    2.4675    0.2474 C   0  0  0  0  0  0  0  0  0  0  0  0
    7.0234    3.5029    0.1077 C   0  0  0  0  0  0  0  0  0  0  0  0
    7.9563    2.3300   -0.2577 C   0  0  0  0  0  0  0  0  0  0  0  0
    6.7029    1.5652   -0.7171 C   0  0  0  0  0  0  0  0  0  0  0  0
    2.0826    3.4705    0.3222 C   0  0  0  0  0  0  0  0  0  0  0  0
    0.9181    2.6399    0.9070 C   0  0  0  0  0  0  0  0  0  0  0  0
    1.2817    1.5175    1.8558 C   0  0  0  0  0  0  0  0  0  0  0  0
    0.8348    1.4779    2.9989 O   0  0  0  0  0  0  0  0  0  0  0  0
    2.4630   -1.8729   -0.8821 H   0  0  0  0  0  0  0  0  0  0  0  0
    1.8176   -1.9681    0.7686 H   0  0  0  0  0  0  0  0  0  0  0  0
    3.5386   -1.6550    0.5054 H   0  0  0  0  0  0  0  0  0  0  0  0
    1.2539    0.1976   -0.3532 H   0  0  0  0  0  0  0  0  0  0  0  0
    2.9738    0.5533   -0.5498 H   0  0  0  0  0  0  0  0  0  0  0  0
    4.3255    0.2730    1.5935 H   0  0  0  0  0  0  0  0  0  0  0  0
    3.3319   -0.1665    2.9935 H   0  0  0  0  0  0  0  0  0  0  0  0
    4.2892    1.0943    4.7940 H   0  0  0  0  0  0  0  0  0  0  0  0
    4.2569    5.3676    4.6586 H   0  0  0  0  0  0  0  0  0  0  0  0
    3.7409    5.3179    2.2276 H   0  0  0  0  0  0  0  0  0  0  0  0
    5.8963    2.0190    1.2461 H   0  0  0  0  0  0  0  0  0  0  0  0
    7.2894    4.0349    1.0254 H   0  0  0  0  0  0  0  0  0  0  0  0
    6.8845    4.2297   -0.6998 H   0  0  0  0  0  0  0  0  0  0  0  0
    8.4553    1.8731    0.6049 H   0  0  0  0  0  0  0  0  0  0  0  0
    8.6989    2.5329   -1.0330 H   0  0  0  0  0  0  0  0  0  0  0  0
    6.6916    0.4966   -0.4848 H   0  0  0  0  0  0  0  0  0  0  0  0
    6.4753    1.6971   -1.7809 H   0  0  0  0  0  0  0  0  0  0  0  0
    2.0069    3.3923   -0.7689 H   0  0  0  0  0  0  0  0  0  0  0  0
    1.9201    4.5344    0.5368 H   0  0  0  0  0  0  0  0  0  0  0  0
    0.2848    2.2437    0.1069 H   0  0  0  0  0  0  0  0  0  0  0  0
    0.2741    3.3297    1.4713 H   0  0  0  0  0  0  0  0  0  0  0  0
  1  2  1  0  0  0  0
  1 23  1  0  0  0  0
  1 24  1  0  0  0  0
  1 25  1  0  0  0  0
  2  3  1  0  0  0  0
  2 26  1  0  0  0  0
  2 27  1  0  0  0  0
  3  4  1  0  0  0  0
  3 21  1  0  0  0  0
  4  5  1  0  0  0  0
  4 28  1  0  0  0  0
  4 29  1  0  0  0  0
  5  6  1  0  0  0  0
  5 11  2  0  0  0  0
  6  7  2  0  0  0  0
  6 30  1  0  0  0  0
  7  8  1  0  0  0  0
  7  9  1  0  0  0  0
  9 10  2  0  0  0  0
  9 31  1  0  0  0  0
 10 11  1  0  0  0  0
 10 32  1  0  0  0  0
 11 12  1  0  0  0  0
 12 13  1  0  0  0  0
 12 19  1  0  0  0  0
 13 14  2  0  0  0  0
 13 15  1  0  0  0  0
 15 16  1  0  0  0  0
 15 18  1  0  0  0  0
 15 33  1  0  0  0  0
 16 17  1  0  0  0  0
 16 34  1  0  0  0  0
 16 35  1  0  0  0  0
 17 18  1  0  0  0  0
 17 36  1  0  0  0  0
 17 37  1  0  0  0  0
 18 38  1  0  0  0  0
 18 39  1  0  0  0  0
 19 20  1  0  0  0  0
 19 40  1  0  0  0  0
 19 41  1  0  0  0  0
 20 21  1  0  0  0  0
 20 42  1  0  0  0  0
 20 43  1  0  0  0  0
 21 22  2  0  0  0  0
M  END
>  <Energy>
42.6112

$$$$

 OpenBabel04232614443D

 30 32  0  0  1  0  0  0  0  0999 V2000
    1.1086    0.0530    0.0426 C   0  0  0  0  0  0  0  0  0  0  0  0
    2.5981    0.0536    0.0014 C   0  0  0  0  0  0  0  0  0  0  0  0
    3.3086   -1.0239    0.0859 N   0  0  0  0  0  0  0  0  0  0  0  0
    4.6222   -0.6358    0.0210 N   0  0  0  0  0  0  0  0  0  0  0  0
    5.6980   -1.4680    0.0297 C   0  0  0  0  0  0  0  0  0  0  0  0
    6.9431   -1.0410    0.0012 N   0  0  0  0  0  0  0  0  0  0  0  0
    7.8257   -2.1102    0.0442 C   0  0  0  0  0  0  0  0  0  0  0  0
    9.2333   -2.0237    0.0443 C   0  0  0  0  0  0  0  0  0  0  0  0
   10.0029   -3.1920    0.0918 C   0  0  0  0  0  0  0  0  0  0  0  0
    9.3890   -4.4397    0.1323 C   0  0  0  0  0  0  0  0  0  0  0  0
    7.9960   -4.5516    0.1333 C   0  0  0  0  0  0  0  0  0  0  0  0
    7.2347   -3.3716    0.0940 C   0  0  0  0  0  0  0  0  0  0  0  0
    5.5295   -3.1864    0.1033 S   0  0  0  0  0  0  0  0  0  0  0  0
    4.7753    0.7864   -0.3388 C   0  0  3  0  0  0  0  0  0  0  0  0
    5.6762    1.4403    0.5671 O   0  0  0  0  0  0  0  0  0  0  0  0
    5.1679    0.9808   -1.8362 C   0  0  0  0  0  0  0  0  0  0  0  0
    4.5374    0.1051   -2.6557 F   0  0  0  0  0  0  0  0  0  0  0  0
    4.8336    2.2236   -2.2741 F   0  0  0  0  0  0  0  0  0  0  0  0
    6.4989    0.8458   -2.0431 F   0  0  0  0  0  0  0  0  0  0  0  0
    3.3677    1.3312   -0.0757 C   0  0  0  0  0  0  0  0  0  0  0  0
    0.7264   -0.9702   -0.0164 H   0  0  0  0  0  0  0  0  0  0  0  0
    0.7213    0.6288   -0.8006 H   0  0  0  0  0  0  0  0  0  0  0  0
    0.7702    0.5114    0.9764 H   0  0  0  0  0  0  0  0  0  0  0  0
    9.7121   -1.0503    0.0098 H   0  0  0  0  0  0  0  0  0  0  0  0
   11.0883   -3.1221    0.0957 H   0  0  0  0  0  0  0  0  0  0  0  0
    9.9981   -5.3408    0.1648 H   0  0  0  0  0  0  0  0  0  0  0  0
    7.5155   -5.5251    0.1664 H   0  0  0  0  0  0  0  0  0  0  0  0
    6.4826    0.8829    0.5371 H   0  0  0  0  0  0  0  0  0  0  0  0
    2.9720    1.9710   -0.8671 H   0  0  0  0  0  0  0  0  0  0  0  0
    3.2867    1.8533    0.8839 H   0  0  0  0  0  0  0  0  0  0  0  0
  1  2  1  0  0  0  0
  1 21  1  0  0  0  0
  1 22  1  0  0  0  0
  1 23  1  0  0  0  0
  2  3  2  0  0  0  0
  2 20  1  0  0  0  0
  3  4  1  0  0  0  0
  4  5  1  0  0  0  0
  4 14  1  0  0  0  0
  5  6  2  0  0  0  0
  5 13  1  0  0  0  0
  6  7  1  0  0  0  0
  7  8  1  0  0  0  0
  7 12  2  0  0  0  0
  8  9  2  0  0  0  0
  8 24  1  0  0  0  0
  9 10  1  0  0  0  0
  9 25  1  0  0  0  0
 10 11  2  0  0  0  0
 10 26  1  0  0  0  0
 11 12  1  0  0  0  0
 11 27  1  0  0  0  0
 12 13  1  0  0  0  0
 14 15  1  0  0  0  0
 14 16  1  0  0  0  0
 14 20  1  0  0  0  0
 15 28  1  0  0  0  0
 16 17  1  0  0  0  0
 16 18  1  0  0  0  0
 16 19  1  0  0  0  0
 20 29  1  0  0  0  0
 20 30  1  0  0  0  0
M  END
>  <Energy>
90.1966

$$$$

 OpenBabel04232614443D

 23 24  0  0  0  0  0  0  0  0999 V2000
    1.2503   -2.5616    0.7541 C   0  0  0  0  0  0  0  0  0  0  0  0
    2.6740   -2.4598    0.7420 O   0  0  0  0  0  0  0  0  0  0  0  0
    3.1441   -1.2221    0.4055 C   0  0  0  0  0  0  0  0  0  0  0  0
    2.4258   -0.2826    0.0915 O   0  0  0  0  0  0  0  0  0  0  0  0
    4.5968   -1.1405    0.5089 C   0  0  0  0  0  0  0  0  0  0  0  0
    5.3591   -2.2900    0.2794 N   0  0  0  0  0  0  0  0  0  0  0  0
    6.6531   -2.0596    0.3715 N   0  0  0  0  0  0  0  0  0  0  0  0
    7.0007   -0.4839    0.7699 S   0  0  0  0  0  0  0  0  0  0  0  0
    5.3393    0.0014    0.8251 C   0  0  0  0  0  0  0  0  0  0  0  0
    4.9721    1.3712    1.2261 C   0  0  0  0  0  0  0  0  0  0  0  0
    5.7718    2.4795    0.8878 C   0  0  0  0  0  0  0  0  0  0  0  0
    5.4344    3.7727    1.3036 C   0  0  0  0  0  0  0  0  0  0  0  0
    4.2783    3.9881    2.0475 C   0  0  0  0  0  0  0  0  0  0  0  0
    3.4720    2.9055    2.3810 C   0  0  0  0  0  0  0  0  0  0  0  0
    1.8875    3.1882    3.3753 Br  0  0  0  0  0  0  0  0  0  0  0  0
    3.8192    1.6097    1.9901 C   0  0  0  0  0  0  0  0  0  0  0  0
    0.9829   -3.5438    1.1550 H   0  0  0  0  0  0  0  0  0  0  0  0
    0.8578   -2.4804   -0.2640 H   0  0  0  0  0  0  0  0  0  0  0  0
    0.8088   -1.7975    1.4026 H   0  0  0  0  0  0  0  0  0  0  0  0
    6.6748    2.3602    0.2917 H   0  0  0  0  0  0  0  0  0  0  0  0
    6.0739    4.6115    1.0410 H   0  0  0  0  0  0  0  0  0  0  0  0
    4.0158    4.9949    2.3601 H   0  0  0  0  0  0  0  0  0  0  0  0
    3.1745    0.7906    2.2943 H   0  0  0  0  0  0  0  0  0  0  0  0
  1  2  1  0  0  0  0
  1 17  1  0  0  0  0
  1 18  1  0  0  0  0
  1 19  1  0  0  0  0
  2  3  1  0  0  0  0
  3  4  2  0  0  0  0
  3  5  1  0  0  0  0
  5  6  1  0  0  0  0
  5  9  2  0  0  0  0
  6  7  2  0  0  0  0
  7  8  1  0  0  0  0
  8  9  1  0  0  0  0
  9 10  1  0  0  0  0
 10 11  1  0  0  0  0
 10 16  2  0  0  0  0
 11 12  2  0  0  0  0
 11 20  1  0  0  0  0
 12 13  1  0  0  0  0
 12 21  1  0  0  0  0
 13 14  2  0  0  0  0
 13 22  1  0  0  0  0
 14 15  1  0  0  0  0
 14 16  1  0  0  0  0
 16 23  1  0  0  0  0
M  END
>  <Energy>
33.7908

$$$$

 OpenBabel04232614443D

 34 36  0  0  0  0  0  0  0  0999 V2000
    2.2894   -0.0304    0.0848 O   0  0  0  0  0  0  0  0  0  0  0  0
    1.0650   -0.0139    0.0570 C   0  0  0  0  0  0  0  0  0  0  0  0
    0.3166    1.2440   -0.0405 C   0  0  0  0  0  0  0  0  0  0  0  0
   -1.0250    1.2357   -0.0271 C   0  0  0  0  0  0  0  0  0  0  0  0
   -1.8009    2.3863   -0.1360 N   0  0  0  0  0  0  0  0  0  0  0  0
   -3.1498    2.5107    0.4492 C   0  0  0  0  0  0  0  0  0  0  0  0
   -4.1469    2.9903   -0.6141 C   0  0  0  0  0  0  0  0  0  0  0  0
   -3.7208    4.2255   -1.2144 O   0  0  0  0  0  0  0  0  0  0  0  0
   -2.4357    4.0572   -1.8338 C   0  0  0  0  0  0  0  0  0  0  0  0
   -1.3682    3.6238   -0.8152 C   0  0  0  0  0  0  0  0  0  0  0  0
   -1.7314    0.0357    0.0869 O   0  0  0  0  0  0  0  0  0  0  0  0
   -1.0497   -1.1750    0.0701 C   0  0  0  0  0  0  0  0  0  0  0  0
   -1.9038   -2.3824    0.0371 C   0  0  0  0  0  0  0  0  0  0  0  0
   -3.1441   -2.4054    0.6934 C   0  0  0  0  0  0  0  0  0  0  0  0
   -3.9557   -3.5469    0.6568 C   0  0  0  0  0  0  0  0  0  0  0  0
   -3.5358   -4.6747   -0.0421 C   0  0  0  0  0  0  0  0  0  0  0  0
   -4.5296   -6.0788   -0.0875 Cl  0  0  0  0  0  0  0  0  0  0  0  0
   -2.3160   -4.6724   -0.7104 C   0  0  0  0  0  0  0  0  0  0  0  0
   -1.5098   -3.5305   -0.6751 C   0  0  0  0  0  0  0  0  0  0  0  0
    0.2863   -1.2552    0.0844 C   0  0  0  0  0  0  0  0  0  0  0  0
    0.9092    2.1451   -0.1006 H   0  0  0  0  0  0  0  0  0  0  0  0
   -3.0979    3.2525    1.2565 H   0  0  0  0  0  0  0  0  0  0  0  0
   -3.4998    1.5727    0.8924 H   0  0  0  0  0  0  0  0  0  0  0  0
   -5.1237    3.1689   -0.1539 H   0  0  0  0  0  0  0  0  0  0  0  0
   -4.2770    2.2373   -1.4000 H   0  0  0  0  0  0  0  0  0  0  0  0
   -2.1542    5.0147   -2.2830 H   0  0  0  0  0  0  0  0  0  0  0  0
   -2.5257    3.3223   -2.6433 H   0  0  0  0  0  0  0  0  0  0  0  0
   -1.2288    4.4071   -0.0612 H   0  0  0  0  0  0  0  0  0  0  0  0
   -0.4202    3.4917   -1.3470 H   0  0  0  0  0  0  0  0  0  0  0  0
   -3.4898   -1.5357    1.2487 H   0  0  0  0  0  0  0  0  0  0  0  0
   -4.9107   -3.5467    1.1755 H   0  0  0  0  0  0  0  0  0  0  0  0
   -1.9859   -5.5478   -1.2637 H   0  0  0  0  0  0  0  0  0  0  0  0
   -0.5717   -3.5510   -1.2255 H   0  0  0  0  0  0  0  0  0  0  0  0
    0.8489   -2.1787    0.1020 H   0  0  0  0  0  0  0  0  0  0  0  0
  1  2  2  0  0  0  0
  2  3  1  0  0  0  0
  2 20  1  0  0  0  0
  3  4  2  0  0  0  0
  3 21  1  0  0  0  0
  4  5  1  0  0  0  0
  4 11  1  0  0  0  0
  5  6  1  0  0  0  0
  5 10  1  0  0  0  0
  6  7  1  0  0  0  0
  6 22  1  0  0  0  0
  6 23  1  0  0  0  0
  7  8  1  0  0  0  0
  7 24  1  0  0  0  0
  7 25  1  0  0  0  0
  8  9  1  0  0  0  0
  9 10  1  0  0  0  0
  9 26  1  0  0  0  0
  9 27  1  0  0  0  0
 10 28  1  0  0  0  0
 10 29  1  0  0  0  0
 11 12  1  0  0  0  0
 12 13  1  0  0  0  0
 12 20  2  0  0  0  0
 13 14  1  0  0  0  0
 13 19  2  0  0  0  0
 14 15  2  0  0  0  0
 14 30  1  0  0  0  0
 15 16  1  0  0  0  0
 15 31  1  0  0  0  0
 16 17  1  0  0  0  0
 16 18  2  0  0  0  0
 18 19  1  0  0  0  0
 18 32  1  0  0  0  0
 19 33  1  0  0  0  0
 20 34  1  0  0  0  0
M  END
>  <Energy>
72.7536

$$$$

 OpenBabel04232614443D

 28 30  0  0  0  0  0  0  0  0999 V2000
    1.1176    0.2053    0.1311 O   0  0  0  0  0  0  0  0  0  0  0  0
    2.5619    0.1249    0.0862 S   0  0  0  0  0  0  0  0  0  0  0  0
    3.2747   -1.1181    0.3170 O   0  0  0  0  0  0  0  0  0  0  0  0
    3.0765    0.7360   -1.4972 C   0  0  0  0  0  0  0  0  0  0  0  0
    3.1790   -0.1940   -2.5458 C   0  0  0  0  0  0  0  0  0  0  0  0
    3.5610    0.2304   -3.8198 C   0  0  0  0  0  0  0  0  0  0  0  0
    3.8387    1.5754   -4.0368 C   0  0  0  0  0  0  0  0  0  0  0  0
    4.1986    1.9823   -5.2614 F   0  0  0  0  0  0  0  0  0  0  0  0
    3.7396    2.4920   -2.9939 C   0  0  0  0  0  0  0  0  0  0  0  0
    4.0086    3.7861   -3.2118 F   0  0  0  0  0  0  0  0  0  0  0  0
    3.3576    2.0863   -1.7164 C   0  0  0  0  0  0  0  0  0  0  0  0
    3.1621    1.1801    1.2465 N   0  0  0  0  0  0  0  0  0  0  0  0
    4.4729    1.1819    1.6151 C   0  0  0  0  0  0  0  0  0  0  0  0
    4.7305    2.1760    2.4352 N   0  0  0  0  0  0  0  0  0  0  0  0
    3.5321    2.8337    2.5928 C   0  0  0  0  0  0  0  0  0  0  0  0
    3.2430    3.9635    3.3725 C   0  0  0  0  0  0  0  0  0  0  0  0
    1.9416    4.4766    3.3639 C   0  0  0  0  0  0  0  0  0  0  0  0
    0.9458    3.8777    2.5928 C   0  0  0  0  0  0  0  0  0  0  0  0
    1.2113    2.7480    1.8094 C   0  0  0  0  0  0  0  0  0  0  0  0
    2.5193    2.2428    1.8317 C   0  0  0  0  0  0  0  0  0  0  0  0
    2.9570   -1.2476   -2.3769 H   0  0  0  0  0  0  0  0  0  0  0  0
    3.6389   -0.4753   -4.6421 H   0  0  0  0  0  0  0  0  0  0  0  0
    3.2802    2.8425   -0.9425 H   0  0  0  0  0  0  0  0  0  0  0  0
    5.1927    0.4512    1.2660 H   0  0  0  0  0  0  0  0  0  0  0  0
    4.0214    4.4247    3.9714 H   0  0  0  0  0  0  0  0  0  0  0  0
    1.7060    5.3502    3.9680 H   0  0  0  0  0  0  0  0  0  0  0  0
   -0.0614    4.2915    2.6064 H   0  0  0  0  0  0  0  0  0  0  0  0
    0.4149    2.2872    1.2319 H   0  0  0  0  0  0  0  0  0  0  0  0
  1  2  2  0  0  0  0
  2  3  2  0  0  0  0
  2  4  1  0  0  0  0
  2 12  1  0  0  0  0
  4  5  1  0  0  0  0
  4 11  2  0  0  0  0
  5  6  2  0  0  0  0
  5 21  1  0  0  0  0
  6  7  1  0  0  0  0
  6 22  1  0  0  0  0
  7  8  1  0  0  0  0
  7  9  2  0  0  0  0
  9 10  1  0  0  0  0
  9 11  1  0  0  0  0
 11 23  1  0  0  0  0
 12 13  1  0  0  0  0
 12 20  1  0  0  0  0
 13 14  2  0  0  0  0
 13 24  1  0  0  0  0
 14 15  1  0  0  0  0
 15 16  1  0  0  0  0
 15 20  2  0  0  0  0
 16 17  2  0  0  0  0
 16 25  1  0  0  0  0
 17 18  1  0  0  0  0
 17 26  1  0  0  0  0
 18 19  2  0  0  0  0
 18 27  1  0  0  0  0
 19 20  1  0  0  0  0
 19 28  1  0  0  0  0
M  END
>  <Energy>
84.2257

$$$$

 OpenBabel04232614443D

 33 36  0  0  0  0  0  0  0  0999 V2000
    2.4701    0.0875    0.4283 N   0  0  0  0  0  0  0  0  0  0  0  0
    1.0846    0.0089    0.2556 C   0  0  0  0  0  0  0  0  0  0  0  0
    0.3642   -1.0605    0.7863 C   0  0  0  0  0  0  0  0  0  0  0  0
   -1.0359   -1.0864    0.7263 C   0  0  0  0  0  0  0  0  0  0  0  0
   -1.7645   -0.0166    0.1828 C   0  0  0  0  0  0  0  0  0  0  0  0
   -3.2450   -0.0289    0.1162 C   0  0  0  0  0  0  0  0  0  0  0  0
   -4.0254   -0.5838    1.1377 C   0  0  0  0  0  0  0  0  0  0  0  0
   -5.4279   -0.5762    1.0817 C   0  0  0  0  0  0  0  0  0  0  0  0
   -6.1024    0.0098   -0.0164 C   0  0  0  0  0  0  0  0  0  0  0  0
   -5.3253    0.5550   -1.0351 C   0  0  0  0  0  0  0  0  0  0  0  0
   -3.9159    0.5350   -0.9856 C   0  0  0  0  0  0  0  0  0  0  0  0
   -6.2954    1.2188   -2.2877 S   0  0  0  0  0  0  0  0  0  0  0  0
   -7.7559    0.7963   -1.5001 C   0  0  0  0  0  0  0  0  0  0  0  0
   -9.0752    1.0053   -1.9051 C   0  0  0  0  0  0  0  0  0  0  0  0
   -9.4263    1.6255   -3.0944 N   0  0  0  0  0  0  0  0  0  0  0  0
  -10.0675    0.5961   -1.0984 N   0  0  0  0  0  0  0  0  0  0  0  0
   -9.7406   -0.0148    0.0499 C   0  0  0  0  0  0  0  0  0  0  0  0
   -8.5153   -0.2675    0.5192 N   0  0  0  0  0  0  0  0  0  0  0  0
   -7.5107    0.1564   -0.2909 C   0  0  0  0  0  0  0  0  0  0  0  0
   -1.0247    1.0838   -0.2850 C   0  0  0  0  0  0  0  0  0  0  0  0
    0.3746    1.1026   -0.2351 C   0  0  0  0  0  0  0  0  0  0  0  0
    2.9259   -0.8169    0.4917 H   0  0  0  0  0  0  0  0  0  0  0  0
    2.9301    0.7032   -0.2342 H   0  0  0  0  0  0  0  0  0  0  0  0
    0.8864   -1.8936    1.2497 H   0  0  0  0  0  0  0  0  0  0  0  0
   -1.5487   -1.9631    1.1162 H   0  0  0  0  0  0  0  0  0  0  0  0
   -3.5547   -1.0230    2.0147 H   0  0  0  0  0  0  0  0  0  0  0  0
   -6.0051   -1.0143    1.8936 H   0  0  0  0  0  0  0  0  0  0  0  0
   -3.3541    0.9578   -1.8142 H   0  0  0  0  0  0  0  0  0  0  0  0
   -8.7293    2.2425   -3.4883 H   0  0  0  0  0  0  0  0  0  0  0  0
  -10.3840    1.9553   -3.0807 H   0  0  0  0  0  0  0  0  0  0  0  0
  -10.5704   -0.3393    0.6705 H   0  0  0  0  0  0  0  0  0  0  0  0
   -1.5313    1.9635   -0.6767 H   0  0  0  0  0  0  0  0  0  0  0  0
    0.9019    1.9870   -0.5827 H   0  0  0  0  0  0  0  0  0  0  0  0
  1  2  1  0  0  0  0
  1 22  1  0  0  0  0
  1 23  1  0  0  0  0
  2  3  1  0  0  0  0
  2 21  2  0  0  0  0
  3  4  2  0  0  0  0
  3 24  1  0  0  0  0
  4  5  1  0  0  0  0
  4 25  1  0  0  0  0
  5  6  1  0  0  0  0
  5 20  2  0  0  0  0
  6  7  1  0  0  0  0
  6 11  2  0  0  0  0
  7  8  2  0  0  0  0
  7 26  1  0  0  0  0
  8  9  1  0  0  0  0
  8 27  1  0  0  0  0
  9 10  2  0  0  0  0
  9 19  1  0  0  0  0
 10 11  1  0  0  0  0
 10 12  1  0  0  0  0
 11 28  1  0  0  0  0
 12 13  1  0  0  0  0
 13 14  1  0  0  0  0
 13 19  2  0  0  0  0
 14 15  1  0  0  0  0
 14 16  2  0  0  0  0
 15 29  1  0  0  0  0
 15 30  1  0  0  0  0
 16 17  1  0  0  0  0
 17 18  2  0  0  0  0
 17 31  1  0  0  0  0
 18 19  1  0  0  0  0
 20 21  1  0  0  0  0
 20 32  1  0  0  0  0
 21 33  1  0  0  0  0
M  END
>  <Energy>
-3.88702

$$$$

 OpenBabel04232614443D

 40 43  0  0  0  0  0  0  0  0999 V2000
    1.2088    0.1526   -0.8365 O   0  0  0  0  0  0  0  0  0  0  0  0
    2.3607   -0.2061   -0.6365 C   0  0  0  0  0  0  0  0  0  0  0  0
    3.3855    0.7617   -0.2184 C   0  0  0  0  0  0  0  0  0  0  0  0
    4.6220    0.3830    0.1132 C   0  0  0  0  0  0  0  0  0  0  0  0
    5.6148    1.2698    0.4648 O   0  0  0  0  0  0  0  0  0  0  0  0
    4.9877   -1.0309    0.0974 C   0  0  0  0  0  0  0  0  0  0  0  0
    6.2248   -1.5072    0.5447 C   0  0  0  0  0  0  0  0  0  0  0  0
    6.5147   -2.8750    0.5123 C   0  0  0  0  0  0  0  0  0  0  0  0
    5.5985   -3.7588   -0.0525 C   0  0  0  0  0  0  0  0  0  0  0  0
    4.3895   -3.2983   -0.5780 C   0  0  0  0  0  0  0  0  0  0  0  0
    4.0666   -1.9462   -0.4308 C   0  0  0  0  0  0  0  0  0  0  0  0
    2.7831   -1.5136   -0.8294 O   0  0  0  0  0  0  0  0  0  0  0  0
    3.5737   -4.2313   -1.3521 C   0  0  0  0  0  0  0  0  0  0  0  0
    4.1757   -5.3437   -1.7876 C   0  0  0  0  0  0  0  0  0  0  0  0
    5.5793   -5.7446   -1.3462 C   0  0  0  0  0  0  0  0  0  0  0  0
    5.5879   -7.2691   -1.0606 C   0  0  0  0  0  0  0  0  0  0  0  0
    5.6979   -8.1668   -2.2978 C   0  0  0  0  0  0  0  0  0  0  0  0
    7.0159   -8.1267   -3.0858 C   0  0  0  0  0  0  0  0  0  0  0  0
    8.2135   -7.4491   -2.4244 C   0  0  0  0  0  0  0  0  0  0  0  0
    8.0327   -5.9887   -1.9933 C   0  0  0  0  0  0  0  0  0  0  0  0
    6.6827   -5.3556   -2.3603 C   0  0  0  0  0  0  0  0  0  0  0  0
    5.9327   -5.0915   -0.0921 O   0  0  0  0  0  0  0  0  0  0  0  0
    3.0620    1.7933   -0.2003 H   0  0  0  0  0  0  0  0  0  0  0  0
    5.2810    2.1789    0.3670 H   0  0  0  0  0  0  0  0  0  0  0  0
    6.9740   -0.8172    0.9273 H   0  0  0  0  0  0  0  0  0  0  0  0
    7.4713   -3.2417    0.8750 H   0  0  0  0  0  0  0  0  0  0  0  0
    2.5633   -3.9618   -1.6428 H   0  0  0  0  0  0  0  0  0  0  0  0
    3.6341   -6.0104   -2.4522 H   0  0  0  0  0  0  0  0  0  0  0  0
    4.6643   -7.5367   -0.5259 H   0  0  0  0  0  0  0  0  0  0  0  0
    6.3858   -7.5243   -0.3498 H   0  0  0  0  0  0  0  0  0  0  0  0
    4.8764   -7.9484   -2.9937 H   0  0  0  0  0  0  0  0  0  0  0  0
    5.5301   -9.2020   -1.9761 H   0  0  0  0  0  0  0  0  0  0  0  0
    7.3002   -9.1597   -3.3276 H   0  0  0  0  0  0  0  0  0  0  0  0
    6.8370   -7.6568   -4.0613 H   0  0  0  0  0  0  0  0  0  0  0  0
    9.0506   -7.4847   -3.1346 H   0  0  0  0  0  0  0  0  0  0  0  0
    8.5421   -8.0447   -1.5633 H   0  0  0  0  0  0  0  0  0  0  0  0
    8.8396   -5.3912   -2.4334 H   0  0  0  0  0  0  0  0  0  0  0  0
    8.1981   -5.9239   -0.9084 H   0  0  0  0  0  0  0  0  0  0  0  0
    6.3966   -5.5964   -3.3899 H   0  0  0  0  0  0  0  0  0  0  0  0
    6.8274   -4.2676   -2.3493 H   0  0  0  0  0  0  0  0  0  0  0  0
  1  2  2  0  0  0  0
  2  3  1  0  0  0  0
  2 12  1  0  0  0  0
  3  4  2  0  0  0  0
  3 23  1  0  0  0  0
  4  5  1  0  0  0  0
  4  6  1  0  0  0  0
  5 24  1  0  0  0  0
  6  7  1  0  0  0  0
  6 11  2  0  0  0  0
  7  8  2  0  0  0  0
  7 25  1  0  0  0  0
  8  9  1  0  0  0  0
  8 26  1  0  0  0  0
  9 10  2  0  0  0  0
  9 22  1  0  0  0  0
 10 11  1  0  0  0  0
 10 13  1  0  0  0  0
 11 12  1  0  0  0  0
 13 14  2  0  0  0  0
 13 27  1  0  0  0  0
 14 15  1  0  0  0  0
 14 28  1  0  0  0  0
 15 16  1  0  0  0  0
 15 21  1  0  0  0  0
 15 22  1  0  0  0  0
 16 17  1  0  0  0  0
 16 29  1  0  0  0  0
 16 30  1  0  0  0  0
 17 18  1  0  0  0  0
 17 31  1  0  0  0  0
 17 32  1  0  0  0  0
 18 19  1  0  0  0  0
 18 33  1  0  0  0  0
 18 34  1  0  0  0  0
 19 20  1  0  0  0  0
 19 35  1  0  0  0  0
 19 36  1  0  0  0  0
 20 21  1  0  0  0  0
 20 37  1  0  0  0  0
 20 38  1  0  0  0  0
 21 39  1  0  0  0  0
 21 40  1  0  0  0  0
M  END
>  <Energy>
73.737

$$$$

 OpenBabel04232614443D

 41 44  0  0  0  0  0  0  0  0999 V2000
   -2.5051    0.5130   -0.0085 C   0  0  0  0  0  0  0  0  0  0  0  0
   -1.0547    0.2431    0.3849 C   0  0  0  0  0  0  0  0  0  0  0  0
   -0.5423   -1.0056   -0.3332 C   0  0  0  0  0  0  0  0  0  0  0  0
    0.9290   -1.2671   -0.0343 C   0  0  0  0  0  0  0  0  0  0  0  0
    1.7540   -0.0890   -0.3125 N   0  0  0  0  0  0  0  0  0  0  0  0
    2.9455   -0.0814   -1.0582 C   0  0  0  0  0  0  0  0  0  0  0  0
    3.4999    0.9814   -1.3494 O   0  0  0  0  0  0  0  0  0  0  0  0
    3.4926   -1.3475   -1.5209 C   0  0  0  0  0  0  0  0  0  0  0  0
    4.2287   -1.6597   -2.6517 C   0  0  0  0  0  0  0  0  0  0  0  0
    4.4032   -3.0759   -2.6626 C   0  0  0  0  0  0  0  0  0  0  0  0
    3.8226   -3.5206   -1.4833 C   0  0  0  0  0  0  0  0  0  0  0  0
    3.7216   -4.8521   -1.0973 C   0  0  0  0  0  0  0  0  0  0  0  0
    4.2438   -5.7988   -1.9805 C   0  0  0  0  0  0  0  0  0  0  0  0
    4.8630   -5.4212   -3.1827 C   0  0  0  0  0  0  0  0  0  0  0  0
    5.3891   -6.3829   -4.0562 C   0  0  0  0  0  0  0  0  0  0  0  0
    6.0095   -6.0028   -5.2484 C   0  0  0  0  0  0  0  0  0  0  0  0
    6.1109   -4.6555   -5.5902 C   0  0  0  0  0  0  0  0  0  0  0  0
    5.5885   -3.6769   -4.7442 C   0  0  0  0  0  0  0  0  0  0  0  0
    4.9623   -4.0473   -3.5380 C   0  0  0  0  0  0  0  0  0  0  0  0
    3.3404   -2.4770   -0.7652 O   0  0  0  0  0  0  0  0  0  0  0  0
    1.3165    1.1416    0.3426 C   0  0  0  0  0  0  0  0  0  0  0  0
   -0.1558    1.4428    0.0541 C   0  0  0  0  0  0  0  0  0  0  0  0
   -3.1362   -0.3517    0.2245 H   0  0  0  0  0  0  0  0  0  0  0  0
   -2.5948    0.7132   -1.0819 H   0  0  0  0  0  0  0  0  0  0  0  0
   -2.9024    1.3765    0.5334 H   0  0  0  0  0  0  0  0  0  0  0  0
   -1.0190    0.0640    1.4676 H   0  0  0  0  0  0  0  0  0  0  0  0
   -0.6659   -0.8842   -1.4177 H   0  0  0  0  0  0  0  0  0  0  0  0
   -1.1323   -1.8822   -0.0408 H   0  0  0  0  0  0  0  0  0  0  0  0
    1.2073   -2.1254   -0.6414 H   0  0  0  0  0  0  0  0  0  0  0  0
    1.0741   -1.5288    1.0204 H   0  0  0  0  0  0  0  0  0  0  0  0
    4.5332   -0.9511   -3.4095 H   0  0  0  0  0  0  0  0  0  0  0  0
    3.2394   -5.1347   -0.1694 H   0  0  0  0  0  0  0  0  0  0  0  0
    4.1597   -6.8517   -1.7169 H   0  0  0  0  0  0  0  0  0  0  0  0
    5.3212   -7.4417   -3.8141 H   0  0  0  0  0  0  0  0  0  0  0  0
    6.4152   -6.7633   -5.9112 H   0  0  0  0  0  0  0  0  0  0  0  0
    6.5976   -4.3672   -6.5183 H   0  0  0  0  0  0  0  0  0  0  0  0
    5.6735   -2.6316   -5.0290 H   0  0  0  0  0  0  0  0  0  0  0  0
    1.9283    1.9967    0.0375 H   0  0  0  0  0  0  0  0  0  0  0  0
    1.4681    1.0046    1.4187 H   0  0  0  0  0  0  0  0  0  0  0  0
   -0.2669    1.7047   -1.0061 H   0  0  0  0  0  0  0  0  0  0  0  0
   -0.4708    2.3168    0.6365 H   0  0  0  0  0  0  0  0  0  0  0  0
  1  2  1  0  0  0  0
  1 23  1  0  0  0  0
  1 24  1  0  0  0  0
  1 25  1  0  0  0  0
  2  3  1  0  0  0  0
  2 22  1  0  0  0  0
  2 26  1  0  0  0  0
  3  4  1  0  0  0  0
  3 27  1  0  0  0  0
  3 28  1  0  0  0  0
  4  5  1  0  0  0  0
  4 29  1  0  0  0  0
  4 30  1  0  0  0  0
  5  6  1  0  0  0  0
  5 21  1  0  0  0  0
  6  7  2  0  0  0  0
  6  8  1  0  0  0  0
  8  9  2  0  0  0  0
  8 20  1  0  0  0  0
  9 10  1  0  0  0  0
  9 31  1  0  0  0  0
 10 11  1  0  0  0  0
 10 19  2  0  0  0  0
 11 12  2  0  0  0  0
 11 20  1  0  0  0  0
 12 13  1  0  0  0  0
 12 32  1  0  0  0  0
 13 14  2  0  0  0  0
 13 33  1  0  0  0  0
 14 15  1  0  0  0  0
 14 19  1  0  0  0  0
 15 16  2  0  0  0  0
 15 34  1  0  0  0  0
 16 17  1  0  0  0  0
 16 35  1  0  0  0  0
 17 18  2  0  0  0  0
 17 36  1  0  0  0  0
 18 19  1  0  0  0  0
 18 37  1  0  0  0  0
 21 22  1  0  0  0  0
 21 38  1  0  0  0  0
 21 39  1  0  0  0  0
 22 40  1  0  0  0  0
 22 41  1  0  0  0  0
M  END
>  <Energy>
40.5845

$$$$

 OpenBabel04232614443D

 29 31  0  0  0  0  0  0  0  0999 V2000
   -2.4094   -0.5044   -0.8350 C   0  0  0  0  0  0  0  0  0  0  0  0
   -1.0421   -0.1750   -0.3578 C   0  0  0  0  0  0  0  0  0  0  0  0
   -0.2031   -0.9957    0.3749 C   0  0  0  0  0  0  0  0  0  0  0  0
    1.2228   -0.1458    0.8080 S   0  0  0  0  0  0  0  0  0  0  0  0
    0.6197    1.2272   -0.0167 C   0  0  0  0  0  0  0  0  0  0  0  0
    1.3954    2.3623    0.0215 N   0  0  0  0  0  0  0  0  0  0  0  0
    2.1786    2.7216   -1.0511 C   0  0  0  0  0  0  0  0  0  0  0  0
    2.3400    1.7998   -2.2433 C   0  0  0  0  0  0  0  0  0  0  0  0
    2.8624    3.8268   -1.0798 N   0  0  0  0  0  0  0  0  0  0  0  0
    2.7854    4.6968    0.0154 C   0  0  0  0  0  0  0  0  0  0  0  0
    3.5603    5.8591    0.0077 C   0  0  0  0  0  0  0  0  0  0  0  0
    3.5161    6.7404    1.0893 C   0  0  0  0  0  0  0  0  0  0  0  0
    4.4936    8.1561    1.0784 Cl  0  0  0  0  0  0  0  0  0  0  0  0
    2.6922    6.4809    2.1843 C   0  0  0  0  0  0  0  0  0  0  0  0
    1.9108    5.3263    2.1991 C   0  0  0  0  0  0  0  0  0  0  0  0
    1.9698    4.4387    1.1175 C   0  0  0  0  0  0  0  0  0  0  0  0
    1.1866    3.1908    1.1158 C   0  0  0  0  0  0  0  0  0  0  0  0
    0.4265    2.9707    2.0588 O   0  0  0  0  0  0  0  0  0  0  0  0
   -0.5256    1.0811   -0.6403 N   0  0  0  0  0  0  0  0  0  0  0  0
   -2.6611   -1.5509   -0.6359 H   0  0  0  0  0  0  0  0  0  0  0  0
   -2.4938   -0.3278   -1.9110 H   0  0  0  0  0  0  0  0  0  0  0  0
   -3.1445    0.1243   -0.3215 H   0  0  0  0  0  0  0  0  0  0  0  0
   -0.3678   -2.0142    0.6963 H   0  0  0  0  0  0  0  0  0  0  0  0
    1.6474    0.9599   -2.2652 H   0  0  0  0  0  0  0  0  0  0  0  0
    3.3616    1.4050   -2.2359 H   0  0  0  0  0  0  0  0  0  0  0  0
    2.2062    2.3787   -3.1626 H   0  0  0  0  0  0  0  0  0  0  0  0
    4.2018    6.0666   -0.8448 H   0  0  0  0  0  0  0  0  0  0  0  0
    2.6582    7.1674    3.0265 H   0  0  0  0  0  0  0  0  0  0  0  0
    1.2669    5.1156    3.0509 H   0  0  0  0  0  0  0  0  0  0  0  0
  1  2  1  0  0  0  0
  1 20  1  0  0  0  0
  1 21  1  0  0  0  0
  1 22  1  0  0  0  0
  2  3  2  0  0  0  0
  2 19  1  0  0  0  0
  3  4  1  0  0  0  0
  3 23  1  0  0  0  0
  4  5  1  0  0  0  0
  5  6  1  0  0  0  0
  5 19  2  0  0  0  0
  6  7  1  0  0  0  0
  6 17  1  0  0  0  0
  7  8  1  0  0  0  0
  7  9  2  0  0  0  0
  8 24  1  0  0  0  0
  8 25  1  0  0  0  0
  8 26  1  0  0  0  0
  9 10  1  0  0  0  0
 10 11  1  0  0  0  0
 10 16  2  0  0  0  0
 11 12  2  0  0  0  0
 11 27  1  0  0  0  0
 12 13  1  0  0  0  0
 12 14  1  0  0  0  0
 14 15  2  0  0  0  0
 14 28  1  0  0  0  0
 15 16  1  0  0  0  0
 15 29  1  0  0  0  0
 16 17  1  0  0  0  0
 17 18  2  0  0  0  0
M  END
>  <Energy>
16.6085

$$$$

 OpenBabel04232614443D

 34 37  0  0  0  0  0  0  0  0999 V2000
    0.9535    0.1904    0.3974 O   0  0  0  0  0  0  0  0  0  0  0  0
    2.1541    0.0847    0.2034 C   0  0  0  0  0  0  0  0  0  0  0  0
    2.9300   -1.1208    0.6070 C   0  0  0  0  0  0  0  0  0  0  0  0
    3.6520   -1.1162    1.5943 O   0  0  0  0  0  0  0  0  0  0  0  0
    2.7791   -2.2737   -0.1781 N   0  0  0  0  0  0  0  0  0  0  0  0
    3.4102   -3.4661    0.1635 C   0  0  0  0  0  0  0  0  0  0  0  0
    3.0771   -4.4450   -0.7327 C   0  0  0  0  0  0  0  0  0  0  0  0
    2.2325   -3.8567   -1.7002 C   0  0  0  0  0  0  0  0  0  0  0  0
    1.5990   -4.3818   -2.8453 C   0  0  0  0  0  0  0  0  0  0  0  0
    0.8207   -3.5527   -3.6509 C   0  0  0  0  0  0  0  0  0  0  0  0
    0.6704   -2.2125   -3.3280 C   0  0  0  0  0  0  0  0  0  0  0  0
    1.2830   -1.6671   -2.1922 C   0  0  0  0  0  0  0  0  0  0  0  0
    2.0653   -2.5005   -1.3653 C   0  0  0  0  0  0  0  0  0  0  0  0
    2.9397    1.1216   -0.3291 N   0  0  0  0  0  0  0  0  0  0  0  0
    4.2911    1.0632   -0.6421 C   0  0  0  0  0  0  0  0  0  0  0  0
    4.7055    2.2850   -1.1135 C   0  0  0  0  0  0  0  0  0  0  0  0
    3.5865    3.1486   -1.1080 C   0  0  0  0  0  0  0  0  0  0  0  0
    3.4133    4.5030   -1.4584 C   0  0  0  0  0  0  0  0  0  0  0  0
    2.1541    5.0949   -1.3342 C   0  0  0  0  0  0  0  0  0  0  0  0
    1.0725    4.3540   -0.8745 C   0  0  0  0  0  0  0  0  0  0  0  0
    1.2199    3.0084   -0.5223 C   0  0  0  0  0  0  0  0  0  0  0  0
    2.4918    2.4132   -0.6393 C   0  0  0  0  0  0  0  0  0  0  0  0
    4.0371   -3.5103    1.0464 H   0  0  0  0  0  0  0  0  0  0  0  0
    3.4103   -5.4745   -0.6989 H   0  0  0  0  0  0  0  0  0  0  0  0
    1.7169   -5.4316   -3.1018 H   0  0  0  0  0  0  0  0  0  0  0  0
    0.3322   -3.9600   -4.5326 H   0  0  0  0  0  0  0  0  0  0  0  0
    0.0606   -1.5736   -3.9640 H   0  0  0  0  0  0  0  0  0  0  0  0
    1.1168   -0.6153   -1.9907 H   0  0  0  0  0  0  0  0  0  0  0  0
    4.8715    0.1619   -0.4930 H   0  0  0  0  0  0  0  0  0  0  0  0
    5.7136    2.5351   -1.4198 H   0  0  0  0  0  0  0  0  0  0  0  0
    4.2553    5.0897   -1.8156 H   0  0  0  0  0  0  0  0  0  0  0  0
    2.0226    6.1421   -1.5953 H   0  0  0  0  0  0  0  0  0  0  0  0
    0.0974    4.8270   -0.7788 H   0  0  0  0  0  0  0  0  0  0  0  0
    0.3603    2.4546   -0.1543 H   0  0  0  0  0  0  0  0  0  0  0  0
  1  2  2  0  0  0  0
  2  3  1  0  0  0  0
  2 14  1  0  0  0  0
  3  4  2  0  0  0  0
  3  5  1  0  0  0  0
  5  6  1  0  0  0  0
  5 13  1  0  0  0  0
  6  7  2  0  0  0  0
  6 23  1  0  0  0  0
  7  8  1  0  0  0  0
  7 24  1  0  0  0  0
  8  9  1  0  0  0  0
  8 13  2  0  0  0  0
  9 10  2  0  0  0  0
  9 25  1  0  0  0  0
 10 11  1  0  0  0  0
 10 26  1  0  0  0  0
 11 12  2  0  0  0  0
 11 27  1  0  0  0  0
 12 13  1  0  0  0  0
 12 28  1  0  0  0  0
 14 15  1  0  0  0  0
 14 22  1  0  0  0  0
 15 16  2  0  0  0  0
 15 29  1  0  0  0  0
 16 17  1  0  0  0  0
 16 30  1  0  0  0  0
 17 18  1  0  0  0  0
 17 22  2  0  0  0  0
 18 19  2  0  0  0  0
 18 31  1  0  0  0  0
 19 20  1  0  0  0  0
 19 32  1  0  0  0  0
 20 21  2  0  0  0  0
 20 33  1  0  0  0  0
 21 22  1  0  0  0  0
 21 34  1  0  0  0  0
M  END
>  <Energy>
109.511

$$$$

 OpenBabel04232614443D

 28 30  0  0  0  0  0  0  0  0999 V2000
    1.1451   -0.2737   -0.1623 C   0  0  0  0  0  0  0  0  0  0  0  0
    2.5534   -0.0281    0.0188 N   0  0  0  0  0  0  0  0  0  0  0  0
    3.2900   -0.6908    0.9786 C   0  0  0  0  0  0  0  0  0  0  0  0
    2.9197   -1.8635    1.4134 N   0  0  0  0  0  0  0  0  0  0  0  0
    3.7038   -2.5390    2.3741 C   0  0  0  0  0  0  0  0  0  0  0  0
    3.2752   -3.8101    2.7661 C   0  0  0  0  0  0  0  0  0  0  0  0
    4.0025   -4.5666    3.6915 C   0  0  0  0  0  0  0  0  0  0  0  0
    3.5501   -5.9419    4.0836 C   0  0  0  0  0  0  0  0  0  0  0  0
    5.1712   -4.0256    4.2379 C   0  0  0  0  0  0  0  0  0  0  0  0
    5.6144   -2.7516    3.8657 C   0  0  0  0  0  0  0  0  0  0  0  0
    4.8861   -2.0123    2.9337 C   0  0  0  0  0  0  0  0  0  0  0  0
    5.2557   -0.7280    2.4772 N   0  0  0  0  0  0  0  0  0  0  0  0
    6.2840    0.1426    2.7642 C   0  0  0  0  0  0  0  0  0  0  0  0
    7.7239    0.0056    3.9394 Br  0  0  0  0  0  0  0  0  0  0  0  0
    6.0652    1.2555    1.9799 C   0  0  0  0  0  0  0  0  0  0  0  0
    4.9423    1.1091    1.2133 N   0  0  0  0  0  0  0  0  0  0  0  0
    4.4877   -0.0896    1.5286 C   0  0  0  0  0  0  0  0  0  0  0  0
    0.7668    0.3354   -0.9885 H   0  0  0  0  0  0  0  0  0  0  0  0
    0.5894   -0.0056    0.7419 H   0  0  0  0  0  0  0  0  0  0  0  0
    0.9513   -1.3238   -0.4020 H   0  0  0  0  0  0  0  0  0  0  0  0
    2.8534    0.9347   -0.1162 H   0  0  0  0  0  0  0  0  0  0  0  0
    2.3633   -4.2095    2.3266 H   0  0  0  0  0  0  0  0  0  0  0  0
    2.6218   -6.2191    3.5723 H   0  0  0  0  0  0  0  0  0  0  0  0
    3.3666   -5.9881    5.1611 H   0  0  0  0  0  0  0  0  0  0  0  0
    4.3127   -6.6791    3.8136 H   0  0  0  0  0  0  0  0  0  0  0  0
    5.7516   -4.6006    4.9573 H   0  0  0  0  0  0  0  0  0  0  0  0
    6.5281   -2.3953    4.3199 H   0  0  0  0  0  0  0  0  0  0  0  0
    6.6598    2.1591    1.9309 H   0  0  0  0  0  0  0  0  0  0  0  0
  1  2  1  0  0  0  0
  1 18  1  0  0  0  0
  1 19  1  0  0  0  0
  1 20  1  0  0  0  0
  2  3  1  0  0  0  0
  2 21  1  0  0  0  0
  3  4  2  0  0  0  0
  3 17  1  0  0  0  0
  4  5  1  0  0  0  0
  5  6  1  0  0  0  0
  5 11  2  0  0  0  0
  6  7  2  0  0  0  0
  6 22  1  0  0  0  0
  7  8  1  0  0  0  0
  7  9  1  0  0  0  0
  8 23  1  0  0  0  0
  8 24  1  0  0  0  0
  8 25  1  0  0  0  0
  9 10  2  0  0  0  0
  9 26  1  0  0  0  0
 10 11  1  0  0  0  0
 10 27  1  0  0  0  0
 11 12  1  0  0  0  0
 12 13  1  0  0  0  0
 12 17  1  0  0  0  0
 13 14  1  0  0  0  0
 13 15  2  0  0  0  0
 15 16  1  0  0  0  0
 15 28  1  0  0  0  0
 16 17  2  0  0  0  0
M  END
>  <Energy>
17.1879

$$$$

 OpenBabel04232614443D

 31 34  0  0  0  0  0  0  0  0999 V2000
    3.7703   -0.6466    2.3615 O   0  0  0  0  0  0  0  0  0  0  0  0
    3.5667   -0.2436    1.2296 C   0  0  0  0  0  0  0  0  0  0  0  0
    4.0764    1.0514    0.7377 C   0  0  0  0  0  0  0  0  0  0  0  0
    4.8103    1.9657    1.4742 C   0  0  0  0  0  0  0  0  0  0  0  0
    5.2314    3.1348    0.8367 C   0  0  0  0  0  0  0  0  0  0  0  0
    4.9166    3.3603   -0.5148 C   0  0  0  0  0  0  0  0  0  0  0  0
    4.1752    2.4238   -1.2425 C   0  0  0  0  0  0  0  0  0  0  0  0
    3.7563    1.2711   -0.5993 C   0  0  0  0  0  0  0  0  0  0  0  0
    2.8094   -0.0586   -1.2781 S   0  0  0  0  0  0  0  0  0  0  0  0
    2.8735   -0.8907    0.2189 N   0  0  0  0  0  0  0  0  0  0  0  0
    2.4152   -2.2557    0.3417 C   0  0  0  0  0  0  0  0  0  0  0  0
    3.4667   -3.2574   -0.0795 C   0  0  0  0  0  0  0  0  0  0  0  0
    4.3061   -3.8658    0.8843 C   0  0  0  0  0  0  0  0  0  0  0  0
    5.2564   -4.8224    0.5103 C   0  0  0  0  0  0  0  0  0  0  0  0
    5.3382   -5.1524   -0.8241 C   0  0  0  0  0  0  0  0  0  0  0  0
    4.5500   -4.5409   -1.7711 C   0  0  0  0  0  0  0  0  0  0  0  0
    3.6201   -3.5831   -1.4369 C   0  0  0  0  0  0  0  0  0  0  0  0
    4.7787   -5.0198   -3.0239 O   0  0  0  0  0  0  0  0  0  0  0  0
    5.6200   -6.1477   -2.7102 C   0  0  0  0  0  0  0  0  0  0  0  0
    6.1478   -6.1015   -1.3683 O   0  0  0  0  0  0  0  0  0  0  0  0
    5.0516    1.7747    2.5159 H   0  0  0  0  0  0  0  0  0  0  0  0
    5.8078    3.8739    1.3862 H   0  0  0  0  0  0  0  0  0  0  0  0
    5.2563    4.2729   -1.0005 H   0  0  0  0  0  0  0  0  0  0  0  0
    3.9381    2.5998   -2.2872 H   0  0  0  0  0  0  0  0  0  0  0  0
    1.5040   -2.3921   -0.2537 H   0  0  0  0  0  0  0  0  0  0  0  0
    2.1305   -2.4420    1.3851 H   0  0  0  0  0  0  0  0  0  0  0  0
    4.2101   -3.5975    1.9359 H   0  0  0  0  0  0  0  0  0  0  0  0
    5.8893   -5.3040    1.2468 H   0  0  0  0  0  0  0  0  0  0  0  0
    3.0126   -3.1206   -2.2070 H   0  0  0  0  0  0  0  0  0  0  0  0
    6.4484   -6.1906   -3.4249 H   0  0  0  0  0  0  0  0  0  0  0  0
    5.0183   -7.0600   -2.8148 H   0  0  0  0  0  0  0  0  0  0  0  0
  1  2  2  0  0  0  0
  2  3  1  0  0  0  0
  2 10  1  0  0  0  0
  3  4  1  0  0  0  0
  3  8  2  0  0  0  0
  4  5  2  0  0  0  0
  4 21  1  0  0  0  0
  5  6  1  0  0  0  0
  5 22  1  0  0  0  0
  6  7  2  0  0  0  0
  6 23  1  0  0  0  0
  7  8  1  0  0  0  0
  7 24  1  0  0  0  0
  8  9  1  0  0  0  0
  9 10  1  0  0  0  0
 10 11  1  0  0  0  0
 11 12  1  0  0  0  0
 11 25  1  0  0  0  0
 11 26  1  0  0  0  0
 12 13  1  0  0  0  0
 12 17  2  0  0  0  0
 13 14  2  0  0  0  0
 13 27  1  0  0  0  0
 14 15  1  0  0  0  0
 14 28  1  0  0  0  0
 15 16  2  0  0  0  0
 15 20  1  0  0  0  0
 16 17  1  0  0  0  0
 16 18  1  0  0  0  0
 17 29  1  0  0  0  0
 18 19  1  0  0  0  0
 19 20  1  0  0  0  0
 19 30  1  0  0  0  0
 19 31  1  0  0  0  0
M  END
>  <Energy>
46.1662

$$$$

 OpenBabel04232614443D

 43 46  0  0  0  0  0  0  0  0999 V2000
    1.0354   -0.3003    0.2226 C   0  0  0  0  0  0  0  0  0  0  0  0
    2.4204    0.0154   -0.0341 N   0  0  0  0  0  0  0  0  0  0  0  0
    3.1886   -0.5923   -1.0824 C   0  0  0  0  0  0  0  0  0  0  0  0
    4.3450    0.3755   -1.2755 C   0  0  0  0  0  0  0  0  0  0  0  0
    4.5387    1.0370    0.1083 C   0  0  0  0  0  0  0  0  0  0  0  0
    4.8532    2.5405    0.0029 C   0  0  0  0  0  0  0  0  0  0  0  0
    6.3012    2.8204   -0.3735 C   0  0  0  0  0  0  0  0  0  0  0  0
    7.1586    2.1193    0.5848 N   0  0  0  0  0  0  0  0  0  0  0  0
    8.3822    2.6899    0.9566 C   0  0  0  0  0  0  0  0  0  0  0  0
    9.0535    3.6042    0.1270 C   0  0  0  0  0  0  0  0  0  0  0  0
   10.2031    4.2572    0.4157 N   0  0  0  0  0  0  0  0  0  0  0  0
   10.7459    3.9856    1.6168 C   0  0  0  0  0  0  0  0  0  0  0  0
   10.2125    3.0939    2.5442 C   0  0  0  0  0  0  0  0  0  0  0  0
   10.8582    2.8659    3.7744 C   0  0  0  0  0  0  0  0  0  0  0  0
   10.3164    1.9933    4.7137 C   0  0  0  0  0  0  0  0  0  0  0  0
    9.1066    1.3707    4.4481 C   0  0  0  0  0  0  0  0  0  0  0  0
    8.4498    1.6125    3.2377 C   0  0  0  0  0  0  0  0  0  0  0  0
    8.9955    2.4416    2.2257 C   0  0  0  0  0  0  0  0  0  0  0  0
    7.0290    0.6591    0.5257 C   0  0  0  0  0  0  0  0  0  0  0  0
    5.5974    0.2957    0.9513 C   0  0  0  0  0  0  0  0  0  0  0  0
    3.1559    0.8930    0.7374 C   0  0  0  0  0  0  0  0  0  0  0  0
    2.7625    1.4554    1.7490 O   0  0  0  0  0  0  0  0  0  0  0  0
    0.6968   -1.1012   -0.4380 H   0  0  0  0  0  0  0  0  0  0  0  0
    0.4417    0.6015    0.0424 H   0  0  0  0  0  0  0  0  0  0  0  0
    0.9159   -0.5911    1.2693 H   0  0  0  0  0  0  0  0  0  0  0  0
    2.5912   -0.7032   -1.9914 H   0  0  0  0  0  0  0  0  0  0  0  0
    3.5267   -1.5747   -0.7360 H   0  0  0  0  0  0  0  0  0  0  0  0
    4.0610    1.1242   -2.0250 H   0  0  0  0  0  0  0  0  0  0  0  0
    5.2357   -0.1367   -1.6524 H   0  0  0  0  0  0  0  0  0  0  0  0
    4.6582    3.0222    0.9713 H   0  0  0  0  0  0  0  0  0  0  0  0
    4.1818    3.0293   -0.7139 H   0  0  0  0  0  0  0  0  0  0  0  0
    6.4445    3.9066   -0.3375 H   0  0  0  0  0  0  0  0  0  0  0  0
    6.5124    2.4864   -1.3972 H   0  0  0  0  0  0  0  0  0  0  0  0
    8.6688    3.8506   -0.8584 H   0  0  0  0  0  0  0  0  0  0  0  0
   11.6587    4.5370    1.8282 H   0  0  0  0  0  0  0  0  0  0  0  0
   11.7910    3.3742    4.0094 H   0  0  0  0  0  0  0  0  0  0  0  0
   10.8269    1.8166    5.6563 H   0  0  0  0  0  0  0  0  0  0  0  0
    8.6598    0.7046    5.1815 H   0  0  0  0  0  0  0  0  0  0  0  0
    7.4794    1.1470    3.0975 H   0  0  0  0  0  0  0  0  0  0  0  0
    7.7474    0.1289    1.1583 H   0  0  0  0  0  0  0  0  0  0  0  0
    7.2253    0.3121   -0.4966 H   0  0  0  0  0  0  0  0  0  0  0  0
    5.4635    0.5606    2.0086 H   0  0  0  0  0  0  0  0  0  0  0  0
    5.4585   -0.7906    0.8917 H   0  0  0  0  0  0  0  0  0  0  0  0
  1  2  1  0  0  0  0
  1 23  1  0  0  0  0
  1 24  1  0  0  0  0
  1 25  1  0  0  0  0
  2  3  1  0  0  0  0
  2 21  1  0  0  0  0
  3  4  1  0  0  0  0
  3 26  1  0  0  0  0
  3 27  1  0  0  0  0
  4  5  1  0  0  0  0
  4 28  1  0  0  0  0
  4 29  1  0  0  0  0
  5  6  1  0  0  0  0
  5 20  1  0  0  0  0
  5 21  1  0  0  0  0
  6  7  1  0  0  0  0
  6 30  1  0  0  0  0
  6 31  1  0  0  0  0
  7  8  1  0  0  0  0
  7 32  1  0  0  0  0
  7 33  1  0  0  0  0
  8  9  1  0  0  0  0
  8 19  1  0  0  0  0
  9 10  1  0  0  0  0
  9 18  2  0  0  0  0
 10 11  2  0  0  0  0
 10 34  1  0  0  0  0
 11 12  1  0  0  0  0
 12 13  2  0  0  0  0
 12 35  1  0  0  0  0
 13 14  1  0  0  0  0
 13 18  1  0  0  0  0
 14 15  2  0  0  0  0
 14 36  1  0  0  0  0
 15 16  1  0  0  0  0
 15 37  1  0  0  0  0
 16 17  2  0  0  0  0
 16 38  1  0  0  0  0
 17 18  1  0  0  0  0
 17 39  1  0  0  0  0
 19 20  1  0  0  0  0
 19 40  1  0  0  0  0
 19 41  1  0  0  0  0
 20 42  1  0  0  0  0
 20 43  1  0  0  0  0
 21 22  2  0  0  0  0
M  END
>  <Energy>
67.0912

$$$$

 OpenBabel04232614443D

 31 33  0  0  0  0  0  0  0  0999 V2000
    1.0128   -0.5323   -0.3534 C   0  0  0  0  0  0  0  0  0  0  0  0
    2.4385   -0.5892   -0.3659 O   0  0  0  0  0  0  0  0  0  0  0  0
    3.0362    0.3784   -1.1164 C   0  0  0  0  0  0  0  0  0  0  0  0
    2.4259    1.2379   -1.7424 O   0  0  0  0  0  0  0  0  0  0  0  0
    4.4941    0.3073   -1.0874 C   0  0  0  0  0  0  0  0  0  0  0  0
    5.3105    1.2358   -1.7044 C   0  0  0  0  0  0  0  0  0  0  0  0
    6.6432    0.9326   -1.4835 N   0  0  0  0  0  0  0  0  0  0  0  0
    7.7511    1.7087   -1.9318 C   0  0  0  0  0  0  0  0  0  0  0  0
    8.8313    1.1254   -2.0199 O   0  0  0  0  0  0  0  0  0  0  0  0
    7.5973    3.1260   -2.2491 C   0  0  0  0  0  0  0  0  0  0  0  0
    6.7979    4.0771   -1.6376 C   0  0  0  0  0  0  0  0  0  0  0  0
    6.9177    5.3614   -2.2414 C   0  0  0  0  0  0  0  0  0  0  0  0
    7.8274    5.3596   -3.2744 C   0  0  0  0  0  0  0  0  0  0  0  0
    8.5369    3.8207   -3.5027 S   0  0  0  0  0  0  0  0  0  0  0  0
    6.6863   -0.2610   -0.7569 C   0  0  0  0  0  0  0  0  0  0  0  0
    7.7815   -1.0079   -0.2774 C   0  0  0  0  0  0  0  0  0  0  0  0
    7.5373   -2.1632    0.4686 C   0  0  0  0  0  0  0  0  0  0  0  0
    6.2400   -2.5705    0.7411 C   0  0  0  0  0  0  0  0  0  0  0  0
    5.1546   -1.8259    0.2735 C   0  0  0  0  0  0  0  0  0  0  0  0
    5.3659   -0.6502   -0.4837 C   0  0  0  0  0  0  0  0  0  0  0  0
    0.6557   -1.2322    0.4072 H   0  0  0  0  0  0  0  0  0  0  0  0
    0.6180   -0.8419   -1.3254 H   0  0  0  0  0  0  0  0  0  0  0  0
    0.6578    0.4691   -0.0895 H   0  0  0  0  0  0  0  0  0  0  0  0
    5.0279    2.0899   -2.3074 H   0  0  0  0  0  0  0  0  0  0  0  0
    6.1517    3.8702   -0.7921 H   0  0  0  0  0  0  0  0  0  0  0  0
    6.3702    6.2423   -1.9276 H   0  0  0  0  0  0  0  0  0  0  0  0
    8.1187    6.1922   -3.9004 H   0  0  0  0  0  0  0  0  0  0  0  0
    8.8069   -0.7037   -0.4721 H   0  0  0  0  0  0  0  0  0  0  0  0
    8.3765   -2.7468    0.8402 H   0  0  0  0  0  0  0  0  0  0  0  0
    6.0639   -3.4725    1.3221 H   0  0  0  0  0  0  0  0  0  0  0  0
    4.1477   -2.1651    0.5028 H   0  0  0  0  0  0  0  0  0  0  0  0
  1  2  1  0  0  0  0
  1 21  1  0  0  0  0
  1 22  1  0  0  0  0
  1 23  1  0  0  0  0
  2  3  1  0  0  0  0
  3  4  2  0  0  0  0
  3  5  1  0  0  0  0
  5  6  2  0  0  0  0
  5 20  1  0  0  0  0
  6  7  1  0  0  0  0
  6 24  1  0  0  0  0
  7  8  1  0  0  0  0
  7 15  1  0  0  0  0
  8  9  2  0  0  0  0
  8 10  1  0  0  0  0
 10 11  2  0  0  0  0
 10 14  1  0  0  0  0
 11 12  1  0  0  0  0
 11 25  1  0  0  0  0
 12 13  2  0  0  0  0
 12 26  1  0  0  0  0
 13 14  1  0  0  0  0
 13 27  1  0  0  0  0
 15 16  1  0  0  0  0
 15 20  2  0  0  0  0
 16 17  2  0  0  0  0
 16 28  1  0  0  0  0
 17 18  1  0  0  0  0
 17 29  1  0  0  0  0
 18 19  2  0  0  0  0
 18 30  1  0  0  0  0
 19 20  1  0  0  0  0
 19 31  1  0  0  0  0
M  END
>  <Energy>
82.0932

$$$$

 OpenBabel04232614443D

 30 32  0  0  0  0  0  0  0  0999 V2000
    0.8973    0.1296    0.1624 C   0  0  0  0  0  0  0  0  0  0  0  0
    2.4064    0.0494    0.0833 C   0  0  0  0  0  0  0  0  0  0  0  0
    3.0627    1.1663    0.0565 N   0  0  0  0  0  0  0  0  0  0  0  0
    4.4588    1.1203   -0.0266 C   0  0  0  0  0  0  0  0  0  0  0  0
    5.1682    2.3236   -0.0449 C   0  0  0  0  0  0  0  0  0  0  0  0
    6.5624    2.3275   -0.1397 C   0  0  0  0  0  0  0  0  0  0  0  0
    7.2604    1.1226   -0.2150 C   0  0  0  0  0  0  0  0  0  0  0  0
    6.5632   -0.0853   -0.1949 C   0  0  0  0  0  0  0  0  0  0  0  0
    5.1664   -0.0778   -0.1000 C   0  0  0  0  0  0  0  0  0  0  0  0
    4.3949   -1.3347   -0.0839 C   0  0  0  0  0  0  0  0  0  0  0  0
    4.9874   -2.4082   -0.1774 O   0  0  0  0  0  0  0  0  0  0  0  0
    3.0093   -1.1953    0.0207 N   0  0  0  0  0  0  0  0  0  0  0  0
    2.2394   -2.3885    0.0485 C   0  0  0  0  0  0  0  0  0  0  0  0
    1.7824   -2.9230   -1.1637 C   0  0  0  0  0  0  0  0  0  0  0  0
    0.9983   -4.0780   -1.1646 C   0  0  0  0  0  0  0  0  0  0  0  0
    0.6779   -4.7006    0.0419 C   0  0  0  0  0  0  0  0  0  0  0  0
   -0.3076   -6.1108    0.0348 Cl  0  0  0  0  0  0  0  0  0  0  0  0
    1.1415   -4.1883    1.2527 C   0  0  0  0  0  0  0  0  0  0  0  0
    1.9270   -3.0340    1.2567 C   0  0  0  0  0  0  0  0  0  0  0  0
    2.4645   -2.4172    2.7784 Cl  0  0  0  0  0  0  0  0  0  0  0  0
    0.5826    1.1667    0.3154 H   0  0  0  0  0  0  0  0  0  0  0  0
    0.5165   -0.4662    0.9947 H   0  0  0  0  0  0  0  0  0  0  0  0
    0.4599   -0.2274   -0.7748 H   0  0  0  0  0  0  0  0  0  0  0  0
    4.6265    3.2644    0.0133 H   0  0  0  0  0  0  0  0  0  0  0  0
    7.1010    3.2720   -0.1536 H   0  0  0  0  0  0  0  0  0  0  0  0
    8.3450    1.1250   -0.2900 H   0  0  0  0  0  0  0  0  0  0  0  0
    7.1062   -1.0266   -0.2535 H   0  0  0  0  0  0  0  0  0  0  0  0
    2.0367   -2.4463   -2.1078 H   0  0  0  0  0  0  0  0  0  0  0  0
    0.6420   -4.4876   -2.1071 H   0  0  0  0  0  0  0  0  0  0  0  0
    0.8891   -4.6835    2.1865 H   0  0  0  0  0  0  0  0  0  0  0  0
  1  2  1  0  0  0  0
  1 21  1  0  0  0  0
  1 22  1  0  0  0  0
  1 23  1  0  0  0  0
  2  3  2  0  0  0  0
  2 12  1  0  0  0  0
  3  4  1  0  0  0  0
  4  5  1  0  0  0  0
  4  9  2  0  0  0  0
  5  6  2  0  0  0  0
  5 24  1  0  0  0  0
  6  7  1  0  0  0  0
  6 25  1  0  0  0  0
  7  8  2  0  0  0  0
  7 26  1  0  0  0  0
  8  9  1  0  0  0  0
  8 27  1  0  0  0  0
  9 10  1  0  0  0  0
 10 11  2  0  0  0  0
 10 12  1  0  0  0  0
 12 13  1  0  0  0  0
 13 14  1  0  0  0  0
 13 19  2  0  0  0  0
 14 15  2  0  0  0  0
 14 28  1  0  0  0  0
 15 16  1  0  0  0  0
 15 29  1  0  0  0  0
 16 17  1  0  0  0  0
 16 18  2  0  0  0  0
 18 19  1  0  0  0  0
 18 30  1  0  0  0  0
 19 20  1  0  0  0  0
M  END
>  <Energy>
47.7556

$$$$

 OpenBabel04232614443D

 31 32  0  0  0  0  0  0  0  0999 V2000
    1.0417    0.5886   -0.0603 C   0  0  0  0  0  0  0  0  0  0  0  0
    2.4430    0.0900   -0.0716 C   0  0  0  0  0  0  0  0  0  0  0  0
    3.4212    0.9950   -0.0771 N   0  0  0  0  0  0  0  0  0  0  0  0
    4.5670    0.2859   -0.0773 N   0  0  0  0  0  0  0  0  0  0  0  0
    5.8503    1.0209   -0.0769 C   0  0  0  0  0  0  0  0  0  0  0  0
    5.6199    2.5575   -0.0281 C   0  0  0  0  0  0  0  0  0  0  0  0
    6.6912    0.6550    1.1602 C   0  0  0  0  0  0  0  0  0  0  0  0
    6.6454    0.7249   -1.3612 C   0  0  0  0  0  0  0  0  0  0  0  0
    4.3314   -1.0804   -0.0794 C   0  0  0  0  0  0  0  0  0  0  0  0
    5.3152   -2.0110   -0.1097 N   0  0  0  0  0  0  0  0  0  0  0  0
    4.9894   -3.2682   -0.0091 C   0  0  0  0  0  0  0  0  0  0  0  0
    6.0845   -4.3470   -0.0526 C   0  0  0  0  0  0  0  0  0  0  0  0
    5.6142   -5.6278    0.0010 F   0  0  0  0  0  0  0  0  0  0  0  0
    6.8294   -4.2747   -1.1912 F   0  0  0  0  0  0  0  0  0  0  0  0
    6.9576   -4.2284    0.9866 F   0  0  0  0  0  0  0  0  0  0  0  0
    3.3732   -3.9264    0.2145 S   0  0  0  0  0  0  0  0  0  0  0  0
    2.3513   -2.5444   -0.0577 C   0  0  0  0  0  0  0  0  0  0  0  0
    0.7061   -2.7355   -0.2630 S   0  0  0  0  0  0  0  0  0  0  0  0
    2.9567   -1.2379   -0.0685 C   0  0  0  0  0  0  0  0  0  0  0  0
    1.0092    1.6836   -0.0315 H   0  0  0  0  0  0  0  0  0  0  0  0
    0.5080    0.2249    0.8226 H   0  0  0  0  0  0  0  0  0  0  0  0
    0.5110    0.2748   -0.9639 H   0  0  0  0  0  0  0  0  0  0  0  0
    5.0665    2.8522    0.8720 H   0  0  0  0  0  0  0  0  0  0  0  0
    5.0512    2.9066   -0.8988 H   0  0  0  0  0  0  0  0  0  0  0  0
    6.5696    3.1047   -0.0203 H   0  0  0  0  0  0  0  0  0  0  0  0
    6.1390    0.8542    2.0859 H   0  0  0  0  0  0  0  0  0  0  0  0
    7.6160    1.2440    1.1926 H   0  0  0  0  0  0  0  0  0  0  0  0
    6.9821   -0.3996    1.1671 H   0  0  0  0  0  0  0  0  0  0  0  0
    6.0627    0.9805   -2.2538 H   0  0  0  0  0  0  0  0  0  0  0  0
    6.9273   -0.3294   -1.4394 H   0  0  0  0  0  0  0  0  0  0  0  0
    7.5721    1.3111   -1.3914 H   0  0  0  0  0  0  0  0  0  0  0  0
  1  2  1  0  0  0  0
  1 20  1  0  0  0  0
  1 21  1  0  0  0  0
  1 22  1  0  0  0  0
  2  3  2  0  0  0  0
  2 19  1  0  0  0  0
  3  4  1  0  0  0  0
  4  5  1  0  0  0  0
  4  9  1  0  0  0  0
  5  6  1  0  0  0  0
  5  7  1  0  0  0  0
  5  8  1  0  0  0  0
  6 23  1  0  0  0  0
  6 24  1  0  0  0  0
  6 25  1  0  0  0  0
  7 26  1  0  0  0  0
  7 27  1  0  0  0  0
  7 28  1  0  0  0  0
  8 29  1  0  0  0  0
  8 30  1  0  0  0  0
  8 31  1  0  0  0  0
  9 10  1  0  0  0  0
  9 19  2  0  0  0  0
 10 11  2  0  0  0  0
 11 12  1  0  0  0  0
 11 16  1  0  0  0  0
 12 13  1  0  0  0  0
 12 14  1  0  0  0  0
 12 15  1  0  0  0  0
 16 17  1  0  0  0  0
 17 18  2  0  0  0  0
 17 19  1  0  0  0  0
M  END
>  <Energy>
90.3464

$$$$

 OpenBabel04232614443D

 39 41  0  0  1  0  0  0  0  0999 V2000
    0.8989   -1.8244    0.0325 C   0  0  0  0  0  0  0  0  0  0  0  0
    2.2855   -2.0232    0.2442 O   0  0  0  0  0  0  0  0  0  0  0  0
    2.9576   -0.9339    0.8897 C   0  0  3  0  0  0  0  0  0  0  0  0
    2.4692   -0.7292    2.3200 C   0  0  0  0  0  0  0  0  0  0  0  0
    4.4127   -1.2928    0.8792 C   0  0  0  0  0  0  0  0  0  0  0  0
    5.3008   -0.2565    0.7938 O   0  0  0  0  0  0  0  0  0  0  0  0
    6.5537   -0.7959    0.7286 C   0  0  0  0  0  0  0  0  0  0  0  0
    7.7511   -0.0815    0.6020 C   0  0  0  0  0  0  0  0  0  0  0  0
    7.8351    1.4133    0.5821 C   0  0  0  0  0  0  0  0  0  0  0  0
    8.9015   -0.8936    0.4745 C   0  0  0  0  0  0  0  0  0  0  0  0
   10.1300   -0.2104    0.2794 O   0  0  0  0  0  0  0  0  0  0  0  0
   11.3196   -0.8836    0.0640 C   0  0  0  0  0  0  0  0  0  0  0  0
   12.3774   -0.3030   -0.1483 O   0  0  0  0  0  0  0  0  0  0  0  0
   11.2637   -2.3516    0.1070 C   0  0  0  0  0  0  0  0  0  0  0  0
   10.1358   -3.0428    0.3240 C   0  0  0  0  0  0  0  0  0  0  0  0
   10.1298   -4.5426    0.3535 C   0  0  0  0  0  0  0  0  0  0  0  0
    8.8819   -2.2944    0.5111 C   0  0  0  0  0  0  0  0  0  0  0  0
    7.6531   -2.9396    0.7018 C   0  0  0  0  0  0  0  0  0  0  0  0
    6.4711   -2.1811    0.7931 C   0  0  0  0  0  0  0  0  0  0  0  0
    5.0899   -2.5008    0.9328 C   0  0  0  0  0  0  0  0  0  0  0  0
    4.4897   -3.8537    1.0544 C   0  0  0  0  0  0  0  0  0  0  0  0
    0.5510   -2.5923   -0.6648 H   0  0  0  0  0  0  0  0  0  0  0  0
    0.6965   -0.8415   -0.4008 H   0  0  0  0  0  0  0  0  0  0  0  0
    0.3502   -1.9528    0.9701 H   0  0  0  0  0  0  0  0  0  0  0  0
    2.8061   -0.0222    0.2996 H   0  0  0  0  0  0  0  0  0  0  0  0
    2.5445   -1.6557    2.9003 H   0  0  0  0  0  0  0  0  0  0  0  0
    1.4164   -0.4292    2.3375 H   0  0  0  0  0  0  0  0  0  0  0  0
    3.0471    0.0474    2.8315 H   0  0  0  0  0  0  0  0  0  0  0  0
    6.8507    1.8729    0.7089 H   0  0  0  0  0  0  0  0  0  0  0  0
    8.2487    1.7574   -0.3720 H   0  0  0  0  0  0  0  0  0  0  0  0
    8.4757    1.7652    1.3963 H   0  0  0  0  0  0  0  0  0  0  0  0
   12.2153   -2.8446   -0.0560 H   0  0  0  0  0  0  0  0  0  0  0  0
   11.1229   -4.9593    0.1560 H   0  0  0  0  0  0  0  0  0  0  0  0
    9.4552   -4.9452   -0.4096 H   0  0  0  0  0  0  0  0  0  0  0  0
    9.8119   -4.9085    1.3359 H   0  0  0  0  0  0  0  0  0  0  0  0
    7.5786   -4.0204    0.7474 H   0  0  0  0  0  0  0  0  0  0  0  0
    5.2480   -4.6099    1.2781 H   0  0  0  0  0  0  0  0  0  0  0  0
    3.9956   -4.1384    0.1207 H   0  0  0  0  0  0  0  0  0  0  0  0
    3.7529   -3.8778    1.8638 H   0  0  0  0  0  0  0  0  0  0  0  0
  1  2  1  0  0  0  0
  1 22  1  0  0  0  0
  1 23  1  0  0  0  0
  1 24  1  0  0  0  0
  2  3  1  0  0  0  0
  3  4  1  0  0  0  0
  3  5  1  0  0  0  0
  3 25  1  0  0  0  0
  4 26  1  0  0  0  0
  4 27  1  0  0  0  0
  4 28  1  0  0  0  0
  5  6  1  0  0  0  0
  5 20  2  0  0  0  0
  6  7  1  0  0  0  0
  7  8  1  0  0  0  0
  7 19  2  0  0  0  0
  8  9  1  0  0  0  0
  8 10  2  0  0  0  0
  9 29  1  0  0  0  0
  9 30  1  0  0  0  0
  9 31  1  0  0  0  0
 10 11  1  0  0  0  0
 10 17  1  0  0  0  0
 11 12  1  0  0  0  0
 12 13  2  0  0  0  0
 12 14  1  0  0  0  0
 14 15  2  0  0  0  0
 14 32  1  0  0  0  0
 15 16  1  0  0  0  0
 15 17  1  0  0  0  0
 16 33  1  0  0  0  0
 16 34  1  0  0  0  0
 16 35  1  0  0  0  0
 17 18  2  0  0  0  0
 18 19  1  0  0  0  0
 18 36  1  0  0  0  0
 19 20  1  0  0  0  0
 20 21  1  0  0  0  0
 21 37  1  0  0  0  0
 21 38  1  0  0  0  0
 21 39  1  0  0  0  0
M  END
>  <Energy>
50.7338

$$$$

 OpenBabel04232614443D

 29 31  0  0  0  0  0  0  0  0999 V2000
    3.0694    0.3075    0.0271 O   0  0  0  0  0  0  0  0  0  0  0  0
    1.8476    0.2421    0.0154 C   0  0  0  0  0  0  0  0  0  0  0  0
    0.9160    1.4425    0.0100 C   0  0  0  0  0  0  0  0  0  0  0  0
   -0.4020    0.7824   -0.0025 C   0  0  0  0  0  0  0  0  0  0  0  0
   -1.6825    1.3105   -0.0104 C   0  0  0  0  0  0  0  0  0  0  0  0
   -2.7550    0.4123   -0.0227 C   0  0  0  0  0  0  0  0  0  0  0  0
   -4.0477    0.9814   -0.0711 O   0  0  0  0  0  0  0  0  0  0  0  0
   -5.0888    0.3848    0.6251 C   0  0  0  0  0  0  0  0  0  0  0  0
   -5.0236   -0.6011    1.3440 O   0  0  0  0  0  0  0  0  0  0  0  0
   -6.3661    1.1094    0.3869 C   0  0  0  0  0  0  0  0  0  0  0  0
   -6.4306    2.3511   -0.2650 C   0  0  0  0  0  0  0  0  0  0  0  0
   -7.6632    2.9883   -0.4393 C   0  0  0  0  0  0  0  0  0  0  0  0
   -8.8340    2.3912    0.0300 C   0  0  0  0  0  0  0  0  0  0  0  0
   -8.7710    1.1575    0.6736 C   0  0  0  0  0  0  0  0  0  0  0  0
  -10.2152    0.4220    1.2503 Cl  0  0  0  0  0  0  0  0  0  0  0  0
   -7.5477    0.5164    0.8545 C   0  0  0  0  0  0  0  0  0  0  0  0
   -2.5389   -0.9760   -0.0653 C   0  0  0  0  0  0  0  0  0  0  0  0
   -1.2372   -1.4845   -0.0447 C   0  0  0  0  0  0  0  0  0  0  0  0
   -0.1906   -0.5843   -0.0130 C   0  0  0  0  0  0  0  0  0  0  0  0
    1.1406   -0.9574    0.0005 O   0  0  0  0  0  0  0  0  0  0  0  0
    1.0798    2.0288   -0.8972 H   0  0  0  0  0  0  0  0  0  0  0  0
    1.0652    2.0289    0.9194 H   0  0  0  0  0  0  0  0  0  0  0  0
   -1.8506    2.3818   -0.0057 H   0  0  0  0  0  0  0  0  0  0  0  0
   -5.5321    2.8395   -0.6345 H   0  0  0  0  0  0  0  0  0  0  0  0
   -7.7124    3.9538   -0.9388 H   0  0  0  0  0  0  0  0  0  0  0  0
   -9.7896    2.8924   -0.1062 H   0  0  0  0  0  0  0  0  0  0  0  0
   -7.5124   -0.4461    1.3623 H   0  0  0  0  0  0  0  0  0  0  0  0
   -3.3722   -1.6717   -0.1067 H   0  0  0  0  0  0  0  0  0  0  0  0
   -1.0568   -2.5543   -0.0564 H   0  0  0  0  0  0  0  0  0  0  0  0
  1  2  2  0  0  0  0
  2  3  1  0  0  0  0
  2 20  1  0  0  0  0
  3  4  1  0  0  0  0
  3 21  1  0  0  0  0
  3 22  1  0  0  0  0
  4  5  1  0  0  0  0
  4 19  2  0  0  0  0
  5  6  2  0  0  0  0
  5 23  1  0  0  0  0
  6  7  1  0  0  0  0
  6 17  1  0  0  0  0
  7  8  1  0  0  0  0
  8  9  2  0  0  0  0
  8 10  1  0  0  0  0
 10 11  1  0  0  0  0
 10 16  2  0  0  0  0
 11 12  2  0  0  0  0
 11 24  1  0  0  0  0
 12 13  1  0  0  0  0
 12 25  1  0  0  0  0
 13 14  2  0  0  0  0
 13 26  1  0  0  0  0
 14 15  1  0  0  0  0
 14 16  1  0  0  0  0
 16 27  1  0  0  0  0
 17 18  2  0  0  0  0
 17 28  1  0  0  0  0
 18 19  1  0  0  0  0
 18 29  1  0  0  0  0
 19 20  1  0  0  0  0
M  END
>  <Energy>
65.7359

$$$$

 OpenBabel04232614443D

 36 39  0  0  0  0  0  0  0  0999 V2000
   -5.8775   -6.2137   -6.2991 C   0  0  0  0  0  0  0  0  0  0  0  0
   -4.7056   -6.6025   -5.4505 C   0  0  0  0  0  0  0  0  0  0  0  0
   -3.5554   -7.1780   -5.9866 C   0  0  0  0  0  0  0  0  0  0  0  0
   -2.4859   -7.5143   -5.1505 C   0  0  0  0  0  0  0  0  0  0  0  0
   -2.5524   -7.2792   -3.7690 C   0  0  0  0  0  0  0  0  0  0  0  0
   -3.6868   -6.6876   -3.2140 C   0  0  0  0  0  0  0  0  0  0  0  0
   -3.8124   -6.3953   -1.8346 N   0  0  0  0  0  0  0  0  0  0  0  0
   -4.9267   -5.6527   -1.4609 N   0  0  0  0  0  0  0  0  0  0  0  0
   -4.8112   -5.4263   -0.1880 C   0  0  0  0  0  0  0  0  0  0  0  0
   -5.7795   -4.6212    0.6005 C   0  0  0  0  0  0  0  0  0  0  0  0
   -5.0391   -3.6393    1.3173 O   0  0  0  0  0  0  0  0  0  0  0  0
   -4.7096   -4.1242    2.5573 C   0  0  0  0  0  0  0  0  0  0  0  0
   -5.2105   -3.3751    3.6237 C   0  0  0  0  0  0  0  0  0  0  0  0
   -5.0338   -3.8285    4.9251 C   0  0  0  0  0  0  0  0  0  0  0  0
   -4.3419   -5.0164    5.1488 C   0  0  0  0  0  0  0  0  0  0  0  0
   -3.7852   -5.7314    4.0791 C   0  0  0  0  0  0  0  0  0  0  0  0
   -3.9468   -5.2908    2.7575 C   0  0  0  0  0  0  0  0  0  0  0  0
   -3.2497   -6.0191    1.6715 C   0  0  0  0  0  0  0  0  0  0  0  0
   -3.6189   -6.0477    0.3851 C   0  0  0  0  0  0  0  0  0  0  0  0
   -2.9401   -6.6990   -0.7688 C   0  0  0  0  0  0  0  0  0  0  0  0
   -1.8973   -7.3194   -0.7182 O   0  0  0  0  0  0  0  0  0  0  0  0
   -4.7486   -6.3506   -4.0750 C   0  0  0  0  0  0  0  0  0  0  0  0
   -5.8187   -6.6571   -7.2971 H   0  0  0  0  0  0  0  0  0  0  0  0
   -5.9228   -5.1244   -6.4014 H   0  0  0  0  0  0  0  0  0  0  0  0
   -6.8090   -6.5626   -5.8380 H   0  0  0  0  0  0  0  0  0  0  0  0
   -3.4827   -7.3690   -7.0545 H   0  0  0  0  0  0  0  0  0  0  0  0
   -1.5905   -7.9605   -5.5791 H   0  0  0  0  0  0  0  0  0  0  0  0
   -1.6965   -7.5483   -3.1568 H   0  0  0  0  0  0  0  0  0  0  0  0
   -6.3876   -5.2736    1.2426 H   0  0  0  0  0  0  0  0  0  0  0  0
   -6.4588   -4.1024   -0.0834 H   0  0  0  0  0  0  0  0  0  0  0  0
   -5.7588   -2.4571    3.4328 H   0  0  0  0  0  0  0  0  0  0  0  0
   -5.4416   -3.2600    5.7563 H   0  0  0  0  0  0  0  0  0  0  0  0
   -4.2217   -5.3826    6.1678 H   0  0  0  0  0  0  0  0  0  0  0  0
   -3.2305   -6.6409    4.2960 H   0  0  0  0  0  0  0  0  0  0  0  0
   -2.3415   -6.5500    1.9626 H   0  0  0  0  0  0  0  0  0  0  0  0
   -5.6453   -5.8834   -3.6724 H   0  0  0  0  0  0  0  0  0  0  0  0
  1  2  1  0  0  0  0
  1 23  1  0  0  0  0
  1 24  1  0  0  0  0
  1 25  1  0  0  0  0
  2  3  1  0  0  0  0
  2 22  2  0  0  0  0
  3  4  2  0  0  0  0
  3 26  1  0  0  0  0
  4  5  1  0  0  0  0
  4 27  1  0  0  0  0
  5  6  2  0  0  0  0
  5 28  1  0  0  0  0
  6  7  1  0  0  0  0
  6 22  1  0  0  0  0
  7  8  1  0  0  0  0
  7 20  1  0  0  0  0
  8  9  2  0  0  0  0
  9 10  1  0  0  0  0
  9 19  1  0  0  0  0
 10 11  1  0  0  0  0
 10 29  1  0  0  0  0
 10 30  1  0  0  0  0
 11 12  1  0  0  0  0
 12 13  1  0  0  0  0
 12 17  2  0  0  0  0
 13 14  2  0  0  0  0
 13 31  1  0  0  0  0
 14 15  1  0  0  0  0
 14 32  1  0  0  0  0
 15 16  2  0  0  0  0
 15 33  1  0  0  0  0
 16 17  1  0  0  0  0
 16 34  1  0  0  0  0
 17 18  1  0  0  0  0
 18 19  2  0  0  0  0
 18 35  1  0  0  0  0
 19 20  1  0  0  0  0
 20 21  2  0  0  0  0
 22 36  1  0  0  0  0
M  END
>  <Energy>
108.916

$$$$

 OpenBabel04232614443D

 24 26  0  0  0  0  0  0  0  0999 V2000
    1.1267    0.2337   -0.4105 O   0  0  0  0  0  0  0  0  0  0  0  0
    2.3247    0.0806   -0.2087 C   0  0  0  0  0  0  0  0  0  0  0  0
    3.2036    1.2554   -0.1485 C   0  0  0  0  0  0  0  0  0  0  0  0
    2.8367    2.5848   -0.2786 C   0  0  0  0  0  0  0  0  0  0  0  0
    3.8447    3.5424   -0.1812 C   0  0  0  0  0  0  0  0  0  0  0  0
    5.1556    3.1177    0.0382 C   0  0  0  0  0  0  0  0  0  0  0  0
    5.5223    1.8214    0.1809 N   0  0  0  0  0  0  0  0  0  0  0  0
    4.5205    0.9276    0.0872 C   0  0  0  0  0  0  0  0  0  0  0  0
    4.7375   -0.8177    0.2892 S   0  0  0  0  0  0  0  0  0  0  0  0
    3.0484   -1.0967    0.0229 N   0  0  0  0  0  0  0  0  0  0  0  0
    2.4967   -2.4134    0.0365 C   0  0  0  0  0  0  0  0  0  0  0  0
    1.2569   -2.6894   -0.5616 C   0  0  0  0  0  0  0  0  0  0  0  0
    0.7090   -3.9788   -0.5460 C   0  0  0  0  0  0  0  0  0  0  0  0
    1.3902   -5.0132    0.0836 C   0  0  0  0  0  0  0  0  0  0  0  0
    0.6431   -6.7474    0.1274 Br  0  0  0  0  0  0  0  0  0  0  0  0
    2.6203   -4.7716    0.6835 C   0  0  0  0  0  0  0  0  0  0  0  0
    3.1719   -3.4844    0.6498 C   0  0  0  0  0  0  0  0  0  0  0  0
    1.8010    2.8662   -0.4412 H   0  0  0  0  0  0  0  0  0  0  0  0
    3.6178    4.6003   -0.2704 H   0  0  0  0  0  0  0  0  0  0  0  0
    5.9677    3.8374    0.1114 H   0  0  0  0  0  0  0  0  0  0  0  0
    0.6950   -1.9190   -1.0831 H   0  0  0  0  0  0  0  0  0  0  0  0
   -0.2485   -4.1564   -1.0298 H   0  0  0  0  0  0  0  0  0  0  0  0
    3.1580   -5.5704    1.1885 H   0  0  0  0  0  0  0  0  0  0  0  0
    4.1259   -3.3410    1.1504 H   0  0  0  0  0  0  0  0  0  0  0  0
  1  2  2  0  0  0  0
  2  3  1  0  0  0  0
  2 10  1  0  0  0  0
  3  4  1  0  0  0  0
  3  8  2  0  0  0  0
  4  5  2  0  0  0  0
  4 18  1  0  0  0  0
  5  6  1  0  0  0  0
  5 19  1  0  0  0  0
  6  7  2  0  0  0  0
  6 20  1  0  0  0  0
  7  8  1  0  0  0  0
  8  9  1  0  0  0  0
  9 10  1  0  0  0  0
 10 11  1  0  0  0  0
 11 12  1  0  0  0  0
 11 17  2  0  0  0  0
 12 13  2  0  0  0  0
 12 21  1  0  0  0  0
 13 14  1  0  0  0  0
 13 22  1  0  0  0  0
 14 15  1  0  0  0  0
 14 16  2  0  0  0  0
 16 17  1  0  0  0  0
 16 23  1  0  0  0  0
 17 24  1  0  0  0  0
M  END
>  <Energy>
54.611

$$$$

 OpenBabel04232614443D

 34 37  0  0  0  0  0  0  0  0999 V2000
    1.0728   -0.3878    0.5093 C   0  0  0  0  0  0  0  0  0  0  0  0
    2.4232   -0.1333    0.1350 O   0  0  0  0  0  0  0  0  0  0  0  0
    3.0193    0.9269    0.7624 C   0  0  0  0  0  0  0  0  0  0  0  0
    2.6767    1.4010    2.0300 C   0  0  0  0  0  0  0  0  0  0  0  0
    3.3546    2.4931    2.5698 C   0  0  0  0  0  0  0  0  0  0  0  0
    4.3696    3.1005    1.8332 C   0  0  0  0  0  0  0  0  0  0  0  0
    4.9985    4.2097    2.4239 O   0  0  0  0  0  0  0  0  0  0  0  0
    5.9992    4.8952    1.7590 C   0  0  0  0  0  0  0  0  0  0  0  0
    6.5358    5.8896    2.2345 O   0  0  0  0  0  0  0  0  0  0  0  0
    6.3906    4.3964    0.4347 C   0  0  0  0  0  0  0  0  0  0  0  0
    5.8101    3.3407   -0.1553 C   0  0  0  0  0  0  0  0  0  0  0  0
    6.2627    3.0232   -1.4713 C   0  0  0  0  0  0  0  0  0  0  0  0
    5.7745    3.4839   -2.6890 C   0  0  0  0  0  0  0  0  0  0  0  0
    6.5426    2.8899   -3.7211 C   0  0  0  0  0  0  0  0  0  0  0  0
    6.5530    2.9478   -5.1257 C   0  0  0  0  0  0  0  0  0  0  0  0
    7.5006    2.1826   -5.8199 C   0  0  0  0  0  0  0  0  0  0  0  0
    8.4165    1.3780   -5.1359 C   0  0  0  0  0  0  0  0  0  0  0  0
    8.4201    1.3112   -3.7376 C   0  0  0  0  0  0  0  0  0  0  0  0
    7.4669    2.0844   -3.0779 C   0  0  0  0  0  0  0  0  0  0  0  0
    7.3051    2.1628   -1.7301 O   0  0  0  0  0  0  0  0  0  0  0  0
    4.7424    2.6404    0.5726 C   0  0  0  0  0  0  0  0  0  0  0  0
    4.0642    1.5307    0.0507 C   0  0  0  0  0  0  0  0  0  0  0  0
    0.6705   -1.1381   -0.1779 H   0  0  0  0  0  0  0  0  0  0  0  0
    0.4596    0.5154    0.4153 H   0  0  0  0  0  0  0  0  0  0  0  0
    1.0128   -0.8005    1.5211 H   0  0  0  0  0  0  0  0  0  0  0  0
    1.8993    0.9319    2.6238 H   0  0  0  0  0  0  0  0  0  0  0  0
    3.0930    2.8679    3.5555 H   0  0  0  0  0  0  0  0  0  0  0  0
    7.1807    4.9655   -0.0443 H   0  0  0  0  0  0  0  0  0  0  0  0
    4.9517    4.1752   -2.8092 H   0  0  0  0  0  0  0  0  0  0  0  0
    5.8455    3.5701   -5.6646 H   0  0  0  0  0  0  0  0  0  0  0  0
    7.5214    2.2166   -6.9073 H   0  0  0  0  0  0  0  0  0  0  0  0
    9.1405    0.7929   -5.7001 H   0  0  0  0  0  0  0  0  0  0  0  0
    9.1227    0.6942   -3.1929 H   0  0  0  0  0  0  0  0  0  0  0  0
    4.3280    1.1259   -0.9245 H   0  0  0  0  0  0  0  0  0  0  0  0
  1  2  1  0  0  0  0
  1 23  1  0  0  0  0
  1 24  1  0  0  0  0
  1 25  1  0  0  0  0
  2  3  1  0  0  0  0
  3  4  1  0  0  0  0
  3 22  2  0  0  0  0
  4  5  2  0  0  0  0
  4 26  1  0  0  0  0
  5  6  1  0  0  0  0
  5 27  1  0  0  0  0
  6  7  1  0  0  0  0
  6 21  2  0  0  0  0
  7  8  1  0  0  0  0
  8  9  2  0  0  0  0
  8 10  1  0  0  0  0
 10 11  2  0  0  0  0
 10 28  1  0  0  0  0
 11 12  1  0  0  0  0
 11 21  1  0  0  0  0
 12 13  2  0  0  0  0
 12 20  1  0  0  0  0
 13 14  1  0  0  0  0
 13 29  1  0  0  0  0
 14 15  1  0  0  0  0
 14 19  2  0  0  0  0
 15 16  2  0  0  0  0
 15 30  1  0  0  0  0
 16 17  1  0  0  0  0
 16 31  1  0  0  0  0
 17 18  2  0  0  0  0
 17 32  1  0  0  0  0
 18 19  1  0  0  0  0
 18 33  1  0  0  0  0
 19 20  1  0  0  0  0
 21 22  1  0  0  0  0
 22 34  1  0  0  0  0
M  END
>  <Energy>
47.0499

$$$$

 OpenBabel04232614443D

 31 32  0  0  1  0  0  0  0  0999 V2000
    1.0874    0.1281    0.0265 C   0  0  0  0  0  0  0  0  0  0  0  0
    2.5788    0.0525   -0.0166 C   0  0  0  0  0  0  0  0  0  0  0  0
    3.3341   -1.0368   -0.1364 C   0  0  0  0  0  0  0  0  0  0  0  0
    2.7863   -2.4505   -0.2455 C   0  0  0  0  0  0  0  0  0  0  0  0
    2.3319   -3.6232   -0.3360 N   0  0  0  0  0  0  0  0  0  0  0  0
    4.7612   -0.7090   -0.0811 C   0  0  0  0  0  0  0  0  0  0  0  0
    5.8518   -1.5241    0.1307 C   0  0  0  0  0  0  0  0  0  0  0  0
    5.6002   -2.9959    0.4152 C   0  0  0  0  0  0  0  0  0  0  0  0
    5.3916   -4.2169    0.6511 N   0  0  0  0  0  0  0  0  0  0  0  0
    7.1736   -1.0177    0.1629 C   0  0  0  0  0  0  0  0  0  0  0  0
    8.2618   -0.6084    0.1873 N   0  0  0  0  0  0  0  0  0  0  0  0
    4.8414    0.6961   -0.2173 O   0  0  0  0  0  0  0  0  0  0  0  0
    3.4885    1.2496    0.0951 C   0  0  3  0  0  0  0  0  0  0  0  0
    3.5827    1.7119    1.5611 C   0  0  0  0  0  0  0  0  0  0  0  0
    3.0392    2.3317   -0.9002 C   0  0  0  0  0  0  0  0  0  0  0  0
    3.4567    2.2955   -2.2432 C   0  0  0  0  0  0  0  0  0  0  0  0
    2.8591    3.1218   -3.2067 C   0  0  0  0  0  0  0  0  0  0  0  0
    1.8454    4.0001   -2.8409 C   0  0  0  0  0  0  0  0  0  0  0  0
    1.2437    4.7470   -3.7758 F   0  0  0  0  0  0  0  0  0  0  0  0
    1.4349    4.0920   -1.5247 C   0  0  0  0  0  0  0  0  0  0  0  0
    2.0319    3.2674   -0.5722 C   0  0  0  0  0  0  0  0  0  0  0  0
    1.5437    3.3376    0.6732 F   0  0  0  0  0  0  0  0  0  0  0  0
    0.6213   -0.8616   -0.0153 H   0  0  0  0  0  0  0  0  0  0  0  0
    0.6981    0.6942   -0.8253 H   0  0  0  0  0  0  0  0  0  0  0  0
    0.7511    0.6067    0.9505 H   0  0  0  0  0  0  0  0  0  0  0  0
    3.9894    0.9157    2.1991 H   0  0  0  0  0  0  0  0  0  0  0  0
    2.6163    1.9863    1.9909 H   0  0  0  0  0  0  0  0  0  0  0  0
    4.2660    2.5623    1.6577 H   0  0  0  0  0  0  0  0  0  0  0  0
    4.2193    1.5909   -2.5667 H   0  0  0  0  0  0  0  0  0  0  0  0
    3.1571    3.0643   -4.2494 H   0  0  0  0  0  0  0  0  0  0  0  0
    0.6333    4.7677   -1.2457 H   0  0  0  0  0  0  0  0  0  0  0  0
  1  2  1  0  0  0  0
  1 23  1  0  0  0  0
  1 24  1  0  0  0  0
  1 25  1  0  0  0  0
  2  3  2  0  0  0  0
  2 13  1  0  0  0  0
  3  4  1  0  0  0  0
  3  6  1  0  0  0  0
  4  5  3  0  0  0  0
  6  7  2  0  0  0  0
  6 12  1  0  0  0  0
  7  8  1  0  0  0  0
  7 10  1  0  0  0  0
  8  9  3  0  0  0  0
 10 11  3  0  0  0  0
 12 13  1  0  0  0  0
 13 14  1  0  0  0  0
 13 15  1  0  0  0  0
 14 26  1  0  0  0  0
 14 27  1  0  0  0  0
 14 28  1  0  0  0  0
 15 16  1  0  0  0  0
 15 21  2  0  0  0  0
 16 17  2  0  0  0  0
 16 29  1  0  0  0  0
 17 18  1  0  0  0  0
 17 30  1  0  0  0  0
 18 19  1  0  0  0  0
 18 20  2  0  0  0  0
 20 21  1  0  0  0  0
 20 31  1  0  0  0  0
 21 22  1  0  0  0  0
M  END
>  <Energy>
332.255

$$$$

 OpenBabel04232614443D

 34 36  0  0  1  0  0  0  0  0999 V2000
    1.0486    0.2163    0.5243 C   0  0  0  0  0  0  0  0  0  0  0  0
    2.5305    0.0024    0.1892 C   0  0  3  0  0  0  0  0  0  0  0  0
    3.3832    1.0991    0.8618 C   0  0  0  0  0  0  0  0  0  0  0  0
    4.0295    0.3458    1.9778 C   0  0  0  0  0  0  0  0  0  0  0  0
    4.7798    0.8865    3.0134 C   0  0  0  0  0  0  0  0  0  0  0  0
    5.3362    0.0202    3.9520 C   0  0  0  0  0  0  0  0  0  0  0  0
    5.1217   -1.3603    3.8497 C   0  0  0  0  0  0  0  0  0  0  0  0
    4.3600   -1.8922    2.8009 C   0  0  0  0  0  0  0  0  0  0  0  0
    3.8390   -1.0317    1.8445 C   0  0  0  0  0  0  0  0  0  0  0  0
    3.0695   -1.3118    0.6820 N   0  0  0  0  0  0  0  0  0  0  0  0
    2.8652   -2.5476    0.0447 C   0  0  0  0  0  0  0  0  0  0  0  0
    1.6751   -2.7990   -1.1199 S   0  0  0  0  0  0  0  0  0  0  0  0
    3.7932   -3.5293    0.3897 N   0  0  0  0  0  0  0  0  0  0  0  0
    3.8504   -4.8786    0.0331 C   0  0  0  0  0  0  0  0  0  0  0  0
    2.8826   -5.5649   -0.2716 O   0  0  0  0  0  0  0  0  0  0  0  0
    5.1795   -5.4453    0.1613 C   0  0  0  0  0  0  0  0  0  0  0  0
    5.6634   -6.6961   -0.1740 C   0  0  0  0  0  0  0  0  0  0  0  0
    7.0310   -6.7154    0.1924 C   0  0  0  0  0  0  0  0  0  0  0  0
    7.2996   -5.4793    0.7307 C   0  0  0  0  0  0  0  0  0  0  0  0
    6.1897   -4.6949    0.7087 O   0  0  0  0  0  0  0  0  0  0  0  0
    0.7388    1.2305    0.2477 H   0  0  0  0  0  0  0  0  0  0  0  0
    0.8518    0.0757    1.5919 H   0  0  0  0  0  0  0  0  0  0  0  0
    0.3963   -0.4685   -0.0217 H   0  0  0  0  0  0  0  0  0  0  0  0
    2.6605    0.0546   -0.8986 H   0  0  0  0  0  0  0  0  0  0  0  0
    2.7870    1.9406    1.2287 H   0  0  0  0  0  0  0  0  0  0  0  0
    4.1510    1.4696    0.1748 H   0  0  0  0  0  0  0  0  0  0  0  0
    4.9356    1.9584    3.0924 H   0  0  0  0  0  0  0  0  0  0  0  0
    5.9302    0.4171    4.7715 H   0  0  0  0  0  0  0  0  0  0  0  0
    5.5446   -2.0243    4.6007 H   0  0  0  0  0  0  0  0  0  0  0  0
    4.1727   -2.9596    2.7923 H   0  0  0  0  0  0  0  0  0  0  0  0
    4.6898   -3.1558    0.6714 H   0  0  0  0  0  0  0  0  0  0  0  0
    5.0863   -7.4905   -0.6272 H   0  0  0  0  0  0  0  0  0  0  0  0
    7.7311   -7.5326    0.0816 H   0  0  0  0  0  0  0  0  0  0  0  0
    8.1860   -5.0265    1.1531 H   0  0  0  0  0  0  0  0  0  0  0  0
  1  2  1  0  0  0  0
  1 21  1  0  0  0  0
  1 22  1  0  0  0  0
  1 23  1  0  0  0  0
  2  3  1  0  0  0  0
  2 10  1  0  0  0  0
  2 24  1  0  0  0  0
  3  4  1  0  0  0  0
  3 25  1  0  0  0  0
  3 26  1  0  0  0  0
  4  5  1  0  0  0  0
  4  9  2  0  0  0  0
  5  6  2  0  0  0  0
  5 27  1  0  0  0  0
  6  7  1  0  0  0  0
  6 28  1  0  0  0  0
  7  8  2  0  0  0  0
  7 29  1  0  0  0  0
  8  9  1  0  0  0  0
  8 30  1  0  0  0  0
  9 10  1  0  0  0  0
 10 11  1  0  0  0  0
 11 12  2  0  0  0  0
 11 13  1  0  0  0  0
 13 14  1  0  0  0  0
 13 31  1  0  0  0  0
 14 15  2  0  0  0  0
 14 16  1  0  0  0  0
 16 17  2  0  0  0  0
 16 20  1  0  0  0  0
 17 18  1  0  0  0  0
 17 32  1  0  0  0  0
 18 19  2  0  0  0  0
 18 33  1  0  0  0  0
 19 20  1  0  0  0  0
 19 34  1  0  0  0  0
M  END
>  <Energy>
4.24237

$$$$

 OpenBabel04232614443D

 37 39  0  0  0  0  0  0  0  0999 V2000
    1.2422    0.5288    0.4795 O   0  0  0  0  0  0  0  0  0  0  0  0
    2.3280    0.1076    0.0744 C   0  0  0  0  0  0  0  0  0  0  0  0
    2.8943   -1.0867    0.7603 C   0  0  0  0  0  0  0  0  0  0  0  0
    2.0210   -2.0941    1.1944 C   0  0  0  0  0  0  0  0  0  0  0  0
    2.5189   -3.2151    1.8659 C   0  0  0  0  0  0  0  0  0  0  0  0
    3.8890   -3.3332    2.0976 C   0  0  0  0  0  0  0  0  0  0  0  0
    4.5063   -4.7188    2.9079 Cl  0  0  0  0  0  0  0  0  0  0  0  0
    4.7620   -2.3262    1.6932 C   0  0  0  0  0  0  0  0  0  0  0  0
    4.2613   -1.1887    1.0566 C   0  0  0  0  0  0  0  0  0  0  0  0
    3.0192    0.7092   -0.9706 N   0  0  0  0  0  0  0  0  0  0  0  0
    2.6106    2.0480   -1.4240 C   0  0  0  0  0  0  0  0  0  0  0  0
    2.4228    2.1198   -2.9502 C   0  0  0  0  0  0  0  0  0  0  0  0
    3.6049    1.5699   -3.6403 N   0  0  0  0  0  0  0  0  0  0  0  0
    4.3098    2.2603   -4.6028 C   0  0  0  0  0  0  0  0  0  0  0  0
    5.0036    1.6090   -5.6303 C   0  0  0  0  0  0  0  0  0  0  0  0
    5.7333    2.3212   -6.5844 C   0  0  0  0  0  0  0  0  0  0  0  0
    5.7566    3.6986   -6.4970 C   0  0  0  0  0  0  0  0  0  0  0  0
    5.1106    4.3887   -5.5405 N   0  0  0  0  0  0  0  0  0  0  0  0
    4.4121    3.6557   -4.6325 C   0  0  0  0  0  0  0  0  0  0  0  0
    3.9561    0.2019   -3.2404 C   0  0  0  0  0  0  0  0  0  0  0  0
    4.1500    0.1309   -1.7145 C   0  0  0  0  0  0  0  0  0  0  0  0
    0.9502   -2.0005    1.0207 H   0  0  0  0  0  0  0  0  0  0  0  0
    1.8340   -3.9864    2.2092 H   0  0  0  0  0  0  0  0  0  0  0  0
    5.8292   -2.4120    1.8807 H   0  0  0  0  0  0  0  0  0  0  0  0
    4.9461   -0.3870    0.7955 H   0  0  0  0  0  0  0  0  0  0  0  0
    3.4089    2.7360   -1.1191 H   0  0  0  0  0  0  0  0  0  0  0  0
    1.6932    2.3735   -0.9228 H   0  0  0  0  0  0  0  0  0  0  0  0
    2.1900    3.1477   -3.2450 H   0  0  0  0  0  0  0  0  0  0  0  0
    1.5525    1.5140   -3.2326 H   0  0  0  0  0  0  0  0  0  0  0  0
    4.9646    0.5286   -5.7304 H   0  0  0  0  0  0  0  0  0  0  0  0
    6.2613    1.8057   -7.3781 H   0  0  0  0  0  0  0  0  0  0  0  0
    6.3078    4.2984   -7.2147 H   0  0  0  0  0  0  0  0  0  0  0  0
    3.9416    4.2678   -3.8693 H   0  0  0  0  0  0  0  0  0  0  0  0
    4.8828   -0.1575   -3.6995 H   0  0  0  0  0  0  0  0  0  0  0  0
    3.1502   -0.4766   -3.5438 H   0  0  0  0  0  0  0  0  0  0  0  0
    5.0407    0.7034   -1.4268 H   0  0  0  0  0  0  0  0  0  0  0  0
    4.3074   -0.9160   -1.4525 H   0  0  0  0  0  0  0  0  0  0  0  0
  1  2  2  0  0  0  0
  2  3  1  0  0  0  0
  2 10  1  0  0  0  0
  3  4  1  0  0  0  0
  3  9  2  0  0  0  0
  4  5  2  0  0  0  0
  4 22  1  0  0  0  0
  5  6  1  0  0  0  0
  5 23  1  0  0  0  0
  6  7  1  0  0  0  0
  6  8  2  0  0  0  0
  8  9  1  0  0  0  0
  8 24  1  0  0  0  0
  9 25  1  0  0  0  0
 10 11  1  0  0  0  0
 10 21  1  0  0  0  0
 11 12  1  0  0  0  0
 11 26  1  0  0  0  0
 11 27  1  0  0  0  0
 12 13  1  0  0  0  0
 12 28  1  0  0  0  0
 12 29  1  0  0  0  0
 13 14  1  0  0  0  0
 13 20  1  0  0  0  0
 14 15  1  0  0  0  0
 14 19  2  0  0  0  0
 15 16  2  0  0  0  0
 15 30  1  0  0  0  0
 16 17  1  0  0  0  0
 16 31  1  0  0  0  0
 17 18  2  0  0  0  0
 17 32  1  0  0  0  0
 18 19  1  0  0  0  0
 19 33  1  0  0  0  0
 20 21  1  0  0  0  0
 20 34  1  0  0  0  0
 20 35  1  0  0  0  0
 21 36  1  0  0  0  0
 21 37  1  0  0  0  0
M  END
>  <Energy>
125.108

$$$$

 OpenBabel04232614443D

 27 29  0  0  0  0  0  0  0  0999 V2000
    1.3061    0.7079    0.1354 O   0  0  0  0  0  0  0  0  0  0  0  0
    2.4372    0.2521    0.0009 C   0  0  0  0  0  0  0  0  0  0  0  0
    3.1823   -0.1805    1.2115 C   0  0  0  0  0  0  0  0  0  0  0  0
    4.5026    0.2854    1.3659 C   0  0  0  0  0  0  0  0  0  0  0  0
    5.2229   -0.0033    2.5223 C   0  0  0  0  0  0  0  0  0  0  0  0
    4.6229   -0.7326    3.5447 C   0  0  0  0  0  0  0  0  0  0  0  0
    5.5071   -1.0629    4.9815 Cl  0  0  0  0  0  0  0  0  0  0  0  0
    3.3121   -1.1876    3.4138 C   0  0  0  0  0  0  0  0  0  0  0  0
    2.5884   -0.9164    2.2456 C   0  0  0  0  0  0  0  0  0  0  0  0
    0.9906   -1.5622    2.1429 Cl  0  0  0  0  0  0  0  0  0  0  0  0
    3.0078    0.2885   -1.2850 N   0  0  0  0  0  0  0  0  0  0  0  0
    4.0794   -0.4584   -1.7273 C   0  0  0  0  0  0  0  0  0  0  0  0
    4.5088   -0.0827   -2.9094 N   0  0  0  0  0  0  0  0  0  0  0  0
    3.6582    0.9211   -3.2910 C   0  0  0  0  0  0  0  0  0  0  0  0
    3.6797    1.7076   -4.4534 C   0  0  0  0  0  0  0  0  0  0  0  0
    2.7084    2.7023   -4.6148 C   0  0  0  0  0  0  0  0  0  0  0  0
    1.7259    2.9012   -3.6453 C   0  0  0  0  0  0  0  0  0  0  0  0
    1.6878    2.1258   -2.4821 C   0  0  0  0  0  0  0  0  0  0  0  0
    2.6765    1.1423   -2.3283 C   0  0  0  0  0  0  0  0  0  0  0  0
    4.9760    0.9018    0.6021 H   0  0  0  0  0  0  0  0  0  0  0  0
    6.2430    0.3607    2.6268 H   0  0  0  0  0  0  0  0  0  0  0  0
    2.8527   -1.7492    4.2243 H   0  0  0  0  0  0  0  0  0  0  0  0
    4.5133   -1.2589   -1.1419 H   0  0  0  0  0  0  0  0  0  0  0  0
    4.4492    1.5518   -5.2016 H   0  0  0  0  0  0  0  0  0  0  0  0
    2.7241    3.3284   -5.5036 H   0  0  0  0  0  0  0  0  0  0  0  0
    0.9808    3.6819   -3.7871 H   0  0  0  0  0  0  0  0  0  0  0  0
    0.9305    2.3009   -1.7234 H   0  0  0  0  0  0  0  0  0  0  0  0
  1  2  2  0  0  0  0
  2  3  1  0  0  0  0
  2 11  1  0  0  0  0
  3  4  1  0  0  0  0
  3  9  2  0  0  0  0
  4  5  2  0  0  0  0
  4 20  1  0  0  0  0
  5  6  1  0  0  0  0
  5 21  1  0  0  0  0
  6  7  1  0  0  0  0
  6  8  2  0  0  0  0
  8  9  1  0  0  0  0
  8 22  1  0  0  0  0
  9 10  1  0  0  0  0
 11 12  1  0  0  0  0
 11 19  1  0  0  0  0
 12 13  2  0  0  0  0
 12 23  1  0  0  0  0
 13 14  1  0  0  0  0
 14 15  1  0  0  0  0
 14 19  2  0  0  0  0
 15 16  2  0  0  0  0
 15 24  1  0  0  0  0
 16 17  1  0  0  0  0
 16 25  1  0  0  0  0
 17 18  2  0  0  0  0
 17 26  1  0  0  0  0
 18 19  1  0  0  0  0
 18 27  1  0  0  0  0
M  END
>  <Energy>
59.8512

$$$$

 OpenBabel04232614443D

 35 37  0  0  0  0  0  0  0  0999 V2000
    1.2511   -0.8198    0.5908 O   0  0  0  0  0  0  0  0  0  0  0  0
    2.3379   -0.3159    0.3028 C   0  0  0  0  0  0  0  0  0  0  0  0
    3.0086   -0.5610   -1.0379 C   0  0  0  0  0  0  0  0  0  0  0  0
    2.1141   -1.1889   -2.0017 N   0  0  0  0  0  0  0  0  0  0  0  0
    1.8348   -2.5374   -2.1405 C   0  0  0  0  0  0  0  0  0  0  0  0
    2.3620   -3.6175   -1.2406 C   0  0  0  0  0  0  0  0  0  0  0  0
    3.1392   -3.1473   -0.2280 F   0  0  0  0  0  0  0  0  0  0  0  0
    1.3713   -4.3459   -0.6593 F   0  0  0  0  0  0  0  0  0  0  0  0
    3.1432   -4.4966   -1.9233 F   0  0  0  0  0  0  0  0  0  0  0  0
    1.0383   -2.7310   -3.1862 N   0  0  0  0  0  0  0  0  0  0  0  0
    0.7525   -1.4915   -3.6900 C   0  0  0  0  0  0  0  0  0  0  0  0
   -0.0682   -1.1376   -4.7725 C   0  0  0  0  0  0  0  0  0  0  0  0
   -0.2168    0.2152   -5.0916 C   0  0  0  0  0  0  0  0  0  0  0  0
    0.4481    1.1964   -4.3547 C   0  0  0  0  0  0  0  0  0  0  0  0
    1.2753    0.8611   -3.2758 C   0  0  0  0  0  0  0  0  0  0  0  0
    1.4069   -0.5008   -2.9687 C   0  0  0  0  0  0  0  0  0  0  0  0
    3.0217    0.4851    1.1961 N   0  0  0  0  0  0  0  0  0  0  0  0
    2.4941    0.7658    2.5197 C   0  0  0  0  0  0  0  0  0  0  0  0
    3.0961    2.1169    2.8609 C   0  0  0  0  0  0  0  0  0  0  0  0
    4.4802    2.0400    2.2258 C   0  0  0  0  0  0  0  0  0  0  0  0
    4.2554    1.2202    0.9583 C   0  0  0  0  0  0  0  0  0  0  0  0
    3.8892   -1.1949   -0.9155 H   0  0  0  0  0  0  0  0  0  0  0  0
    3.3462    0.3831   -1.4734 H   0  0  0  0  0  0  0  0  0  0  0  0
   -0.5875   -1.9079   -5.3302 H   0  0  0  0  0  0  0  0  0  0  0  0
   -0.8585    0.5019   -5.9212 H   0  0  0  0  0  0  0  0  0  0  0  0
    0.3150    2.2425   -4.6172 H   0  0  0  0  0  0  0  0  0  0  0  0
    1.7727    1.6354   -2.7055 H   0  0  0  0  0  0  0  0  0  0  0  0
    2.8684   -0.0136    3.1947 H   0  0  0  0  0  0  0  0  0  0  0  0
    1.4014    0.7620    2.5413 H   0  0  0  0  0  0  0  0  0  0  0  0
    3.1284    2.3087    3.9365 H   0  0  0  0  0  0  0  0  0  0  0  0
    2.5133    2.9143    2.3841 H   0  0  0  0  0  0  0  0  0  0  0  0
    5.1711    1.5183    2.8970 H   0  0  0  0  0  0  0  0  0  0  0  0
    4.8986    3.0282    2.0106 H   0  0  0  0  0  0  0  0  0  0  0  0
    5.0752    0.5203    0.7682 H   0  0  0  0  0  0  0  0  0  0  0  0
    4.1214    1.8629    0.0832 H   0  0  0  0  0  0  0  0  0  0  0  0
  1  2  2  0  0  0  0
  2  3  1  0  0  0  0
  2 17  1  0  0  0  0
  3  4  1  0  0  0  0
  3 22  1  0  0  0  0
  3 23  1  0  0  0  0
  4  5  1  0  0  0  0
  4 16  1  0  0  0  0
  5  6  1  0  0  0  0
  5 10  2  0  0  0  0
  6  7  1  0  0  0  0
  6  8  1  0  0  0  0
  6  9  1  0  0  0  0
 10 11  1  0  0  0  0
 11 12  1  0  0  0  0
 11 16  2  0  0  0  0
 12 13  2  0  0  0  0
 12 24  1  0  0  0  0
 13 14  1  0  0  0  0
 13 25  1  0  0  0  0
 14 15  2  0  0  0  0
 14 26  1  0  0  0  0
 15 16  1  0  0  0  0
 15 27  1  0  0  0  0
 17 18  1  0  0  0  0
 17 21  1  0  0  0  0
 18 19  1  0  0  0  0
 18 28  1  0  0  0  0
 18 29  1  0  0  0  0
 19 20  1  0  0  0  0
 19 30  1  0  0  0  0
 19 31  1  0  0  0  0
 20 21  1  0  0  0  0
 20 32  1  0  0  0  0
 20 33  1  0  0  0  0
 21 34  1  0  0  0  0
 21 35  1  0  0  0  0
M  END
>  <Energy>
54.7891

$$$$

 OpenBabel04232614443D

 33 36  0  0  0  0  0  0  0  0999 V2000
    0.9229   -0.3173   -0.1866 O   0  0  0  0  0  0  0  0  0  0  0  0
    2.1382   -0.1851   -0.1297 C   0  0  0  0  0  0  0  0  0  0  0  0
    2.8159    1.1030   -0.4377 C   0  0  0  0  0  0  0  0  0  0  0  0
    4.1597    1.1468   -0.3802 C   0  0  0  0  0  0  0  0  0  0  0  0
    4.9750    0.0898   -0.0148 O   0  0  0  0  0  0  0  0  0  0  0  0
    4.3809   -1.0830    0.3709 C   0  0  0  0  0  0  0  0  0  0  0  0
    5.2192   -2.0883    0.8554 C   0  0  0  0  0  0  0  0  0  0  0  0
    4.6745   -3.3092    1.2545 C   0  0  0  0  0  0  0  0  0  0  0  0
    3.3022   -3.5202    1.1436 C   0  0  0  0  0  0  0  0  0  0  0  0
    2.7882   -4.6991    1.5161 F   0  0  0  0  0  0  0  0  0  0  0  0
    2.4580   -2.5260    0.6676 C   0  0  0  0  0  0  0  0  0  0  0  0
    3.0049   -1.2948    0.2984 C   0  0  0  0  0  0  0  0  0  0  0  0
    4.8998    2.3783   -0.6934 C   0  0  0  0  0  0  0  0  0  0  0  0
    5.8310    2.3761   -1.7437 C   0  0  0  0  0  0  0  0  0  0  0  0
    6.5468    3.5342   -2.0596 C   0  0  0  0  0  0  0  0  0  0  0  0
    6.3545    4.6998   -1.3189 C   0  0  0  0  0  0  0  0  0  0  0  0
    5.4441    4.7123   -0.2625 C   0  0  0  0  0  0  0  0  0  0  0  0
    4.7086    3.5628    0.0325 C   0  0  0  0  0  0  0  0  0  0  0  0
    3.8364    3.5986    1.0943 O   0  0  0  0  0  0  0  0  0  0  0  0
    2.5458    4.0702    0.6725 C   0  0  0  0  0  0  0  0  0  0  0  0
    1.5999    2.9080    0.3563 C   0  0  0  0  0  0  0  0  0  0  0  0
    2.0392    2.1905   -0.8068 O   0  0  0  0  0  0  0  0  0  0  0  0
    6.2898   -1.9165    0.9338 H   0  0  0  0  0  0  0  0  0  0  0  0
    5.3083   -4.0961    1.6511 H   0  0  0  0  0  0  0  0  0  0  0  0
    1.3892   -2.7102    0.5979 H   0  0  0  0  0  0  0  0  0  0  0  0
    5.9976    1.4744   -2.3271 H   0  0  0  0  0  0  0  0  0  0  0  0
    7.2574    3.5250   -2.8831 H   0  0  0  0  0  0  0  0  0  0  0  0
    6.9171    5.5977   -1.5614 H   0  0  0  0  0  0  0  0  0  0  0  0
    5.3057    5.6136    0.3262 H   0  0  0  0  0  0  0  0  0  0  0  0
    2.6215    4.7574   -0.1802 H   0  0  0  0  0  0  0  0  0  0  0  0
    2.1365    4.6399    1.5140 H   0  0  0  0  0  0  0  0  0  0  0  0
    0.6111    3.3163    0.1198 H   0  0  0  0  0  0  0  0  0  0  0  0
    1.4829    2.2460    1.2239 H   0  0  0  0  0  0  0  0  0  0  0  0
  1  2  2  0  0  0  0
  2  3  1  0  0  0  0
  2 12  1  0  0  0  0
  3  4  2  0  0  0  0
  3 22  1  0  0  0  0
  4  5  1  0  0  0  0
  4 13  1  0  0  0  0
  5  6  1  0  0  0  0
  6  7  1  0  0  0  0
  6 12  2  0  0  0  0
  7  8  2  0  0  0  0
  7 23  1  0  0  0  0
  8  9  1  0  0  0  0
  8 24  1  0  0  0  0
  9 10  1  0  0  0  0
  9 11  2  0  0  0  0
 11 12  1  0  0  0  0
 11 25  1  0  0  0  0
 13 14  1  0  0  0  0
 13 18  2  0  0  0  0
 14 15  2  0  0  0  0
 14 26  1  0  0  0  0
 15 16  1  0  0  0  0
 15 27  1  0  0  0  0
 16 17  2  0  0  0  0
 16 28  1  0  0  0  0
 17 18  1  0  0  0  0
 17 29  1  0  0  0  0
 18 19  1  0  0  0  0
 19 20  1  0  0  0  0
 20 21  1  0  0  0  0
 20 30  1  0  0  0  0
 20 31  1  0  0  0  0
 21 22  1  0  0  0  0
 21 32  1  0  0  0  0
 21 33  1  0  0  0  0
M  END
>  <Energy>
100.329

$$$$

 OpenBabel04232614443D

 37 40  0  0  0  0  0  0  0  0999 V2000
    2.5149   -0.0006    0.2033 C   0  0  0  0  0  0  0  0  0  0  0  0
    1.0178   -0.0528    0.3421 C   0  0  0  0  0  0  0  0  0  0  0  0
    0.3262    1.1722    0.2440 C   0  0  0  0  0  0  0  0  0  0  0  0
   -1.0663    1.2222    0.1657 C   0  0  0  0  0  0  0  0  0  0  0  0
   -1.8013    0.0490    0.2334 C   0  0  0  0  0  0  0  0  0  0  0  0
   -1.1469   -1.1710    0.3901 C   0  0  0  0  0  0  0  0  0  0  0  0
    0.2606   -1.2424    0.4255 C   0  0  0  0  0  0  0  0  0  0  0  0
    0.8464   -2.5349    0.2344 N   0  0  0  0  0  0  0  0  0  0  0  0
    1.9997   -3.0997    0.7617 C   0  0  0  0  0  0  0  0  0  0  0  0
    2.5062   -2.7642    2.1188 C   0  0  0  0  0  0  0  0  0  0  0  0
    2.5190   -4.0018   -0.0727 N   0  0  0  0  0  0  0  0  0  0  0  0
    1.6423   -4.0885   -1.1206 C   0  0  0  0  0  0  0  0  0  0  0  0
    0.5298   -3.3225   -0.8433 C   0  0  0  0  0  0  0  0  0  0  0  0
   -0.4253   -3.0387   -1.8557 C   0  0  0  0  0  0  0  0  0  0  0  0
   -1.6335   -3.1037   -1.7957 O   0  0  0  0  0  0  0  0  0  0  0  0
    0.2891   -2.7453   -3.0956 C   0  0  0  0  0  0  0  0  0  0  0  0
    0.4170   -1.4380   -3.5398 C   0  0  0  0  0  0  0  0  0  0  0  0
    1.1612   -1.2067   -4.6851 C   0  0  0  0  0  0  0  0  0  0  0  0
    1.6794   -2.2941   -5.4021 C   0  0  0  0  0  0  0  0  0  0  0  0
    1.6949   -3.5754   -4.8351 C   0  0  0  0  0  0  0  0  0  0  0  0
    1.1607   -3.7435   -3.5681 C   0  0  0  0  0  0  0  0  0  0  0  0
    1.8493   -4.6059   -2.5156 C   0  0  0  0  0  0  0  0  0  0  0  0
    2.6107   -5.4982   -2.8278 O   0  0  0  0  0  0  0  0  0  0  0  0
    2.8611    1.0238    0.0202 H   0  0  0  0  0  0  0  0  0  0  0  0
    2.8439   -0.5997   -0.6514 H   0  0  0  0  0  0  0  0  0  0  0  0
    3.0086   -0.3336    1.1174 H   0  0  0  0  0  0  0  0  0  0  0  0
    0.8758    2.1102    0.1608 H   0  0  0  0  0  0  0  0  0  0  0  0
   -1.5724    2.1736    0.0254 H   0  0  0  0  0  0  0  0  0  0  0  0
   -2.8851    0.0723    0.1248 H   0  0  0  0  0  0  0  0  0  0  0  0
   -1.7573   -2.0737    0.4191 H   0  0  0  0  0  0  0  0  0  0  0  0
    2.0192   -1.8798    2.5412 H   0  0  0  0  0  0  0  0  0  0  0  0
    3.5850   -2.5841    2.0981 H   0  0  0  0  0  0  0  0  0  0  0  0
    2.3057   -3.5976    2.7977 H   0  0  0  0  0  0  0  0  0  0  0  0
    0.0167   -0.6143   -2.9480 H   0  0  0  0  0  0  0  0  0  0  0  0
    1.3446   -0.1878   -5.0152 H   0  0  0  0  0  0  0  0  0  0  0  0
    2.1585   -2.1178   -6.3614 H   0  0  0  0  0  0  0  0  0  0  0  0
    2.2125   -4.3910   -5.3335 H   0  0  0  0  0  0  0  0  0  0  0  0
  1  2  1  0  0  0  0
  1 24  1  0  0  0  0
  1 25  1  0  0  0  0
  1 26  1  0  0  0  0
  2  3  1  0  0  0  0
  2  7  2  0  0  0  0
  3  4  2  0  0  0  0
  3 27  1  0  0  0  0
  4  5  1  0  0  0  0
  4 28  1  0  0  0  0
  5  6  2  0  0  0  0
  5 29  1  0  0  0  0
  6  7  1  0  0  0  0
  6 30  1  0  0  0  0
  7  8  1  0  0  0  0
  8  9  1  0  0  0  0
  8 13  1  0  0  0  0
  9 10  1  0  0  0  0
  9 11  2  0  0  0  0
 10 31  1  0  0  0  0
 10 32  1  0  0  0  0
 10 33  1  0  0  0  0
 11 12  1  0  0  0  0
 12 13  2  0  0  0  0
 12 22  1  0  0  0  0
 13 14  1  0  0  0  0
 14 15  2  0  0  0  0
 14 16  1  0  0  0  0
 16 17  1  0  0  0  0
 16 21  2  0  0  0  0
 17 18  2  0  0  0  0
 17 34  1  0  0  0  0
 18 19  1  0  0  0  0
 18 35  1  0  0  0  0
 19 20  2  0  0  0  0
 19 36  1  0  0  0  0
 20 21  1  0  0  0  0
 20 37  1  0  0  0  0
 21 22  1  0  0  0  0
 22 23  2  0  0  0  0
M  END
>  <Energy>
163.298

$$$$

 OpenBabel04232614443D

 39 42  0  0  0  0  0  0  0  0999 V2000
    1.7384   -0.5959    1.3024 C   0  0  0  0  0  0  0  0  0  0  0  0
    2.4946   -0.0348    0.0800 C   0  0  0  0  0  0  0  0  0  0  0  0
    1.5653    0.9455   -0.6560 C   0  0  0  0  0  0  0  0  0  0  0  0
    3.7434    0.7114    0.5755 C   0  0  0  0  0  0  0  0  0  0  0  0
    2.8861   -1.1747   -0.8357 C   0  0  0  0  0  0  0  0  0  0  0  0
    2.6596   -2.4566   -0.6178 N   0  0  0  0  0  0  0  0  0  0  0  0
    3.1161   -3.1211   -1.7218 C   0  0  0  0  0  0  0  0  0  0  0  0
    3.0871   -4.4914   -2.0124 C   0  0  0  0  0  0  0  0  0  0  0  0
    3.5991   -4.9298   -3.2409 C   0  0  0  0  0  0  0  0  0  0  0  0
    4.1386   -4.0168   -4.1576 C   0  0  0  0  0  0  0  0  0  0  0  0
    4.1837   -2.6487   -3.8705 C   0  0  0  0  0  0  0  0  0  0  0  0
    3.6583   -2.2343   -2.6405 C   0  0  0  0  0  0  0  0  0  0  0  0
    3.5224   -1.0022   -2.0454 N   0  0  0  0  0  0  0  0  0  0  0  0
    4.7465   -1.6839   -4.8272 C   0  0  0  0  0  0  0  0  0  0  0  0
    4.7754   -0.4894   -4.5490 O   0  0  0  0  0  0  0  0  0  0  0  0
    5.2670   -2.1837   -6.1170 C   0  0  0  0  0  0  0  0  0  0  0  0
    5.8065   -1.2838   -7.0448 C   0  0  0  0  0  0  0  0  0  0  0  0
    6.2971   -1.7526   -8.2670 C   0  0  0  0  0  0  0  0  0  0  0  0
    6.2505   -3.1132   -8.5656 C   0  0  0  0  0  0  0  0  0  0  0  0
    5.7139   -4.0114   -7.6423 C   0  0  0  0  0  0  0  0  0  0  0  0
    5.2219   -3.5464   -6.4159 C   0  0  0  0  0  0  0  0  0  0  0  0
    4.6569   -4.5105   -5.4497 C   0  0  0  0  0  0  0  0  0  0  0  0
    4.6151   -5.7053   -5.7188 O   0  0  0  0  0  0  0  0  0  0  0  0
    1.4273    0.2035    1.9835 H   0  0  0  0  0  0  0  0  0  0  0  0
    2.3638   -1.2941    1.8723 H   0  0  0  0  0  0  0  0  0  0  0  0
    0.8367   -1.1409    0.9963 H   0  0  0  0  0  0  0  0  0  0  0  0
    1.2400    1.7545    0.0083 H   0  0  0  0  0  0  0  0  0  0  0  0
    0.6673    0.4386   -1.0286 H   0  0  0  0  0  0  0  0  0  0  0  0
    2.0628    1.4072   -1.5166 H   0  0  0  0  0  0  0  0  0  0  0  0
    3.4710    1.5167    1.2681 H   0  0  0  0  0  0  0  0  0  0  0  0
    4.2995    1.1644   -0.2531 H   0  0  0  0  0  0  0  0  0  0  0  0
    4.4285    0.0369    1.1022 H   0  0  0  0  0  0  0  0  0  0  0  0
    2.6633   -5.1894   -1.2984 H   0  0  0  0  0  0  0  0  0  0  0  0
    3.5678   -5.9925   -3.4770 H   0  0  0  0  0  0  0  0  0  0  0  0
    3.8185   -0.1263   -2.4601 H   0  0  0  0  0  0  0  0  0  0  0  0
    5.8468   -0.2197   -6.8220 H   0  0  0  0  0  0  0  0  0  0  0  0
    6.7155   -1.0512   -8.9869 H   0  0  0  0  0  0  0  0  0  0  0  0
    6.6323   -3.4766   -9.5174 H   0  0  0  0  0  0  0  0  0  0  0  0
    5.6806   -5.0732   -7.8827 H   0  0  0  0  0  0  0  0  0  0  0  0
  1  2  1  0  0  0  0
  1 24  1  0  0  0  0
  1 25  1  0  0  0  0
  1 26  1  0  0  0  0
  2  3  1  0  0  0  0
  2  4  1  0  0  0  0
  2  5  1  0  0  0  0
  3 27  1  0  0  0  0
  3 28  1  0  0  0  0
  3 29  1  0  0  0  0
  4 30  1  0  0  0  0
  4 31  1  0  0  0  0
  4 32  1  0  0  0  0
  5  6  2  0  0  0  0
  5 13  1  0  0  0  0
  6  7  1  0  0  0  0
  7  8  1  0  0  0  0
  7 12  2  0  0  0  0
  8  9  2  0  0  0  0
  8 33  1  0  0  0  0
  9 10  1  0  0  0  0
  9 34  1  0  0  0  0
 10 11  2  0  0  0  0
 10 22  1  0  0  0  0
 11 12  1  0  0  0  0
 11 14  1  0  0  0  0
 12 13  1  0  0  0  0
 13 35  1  0  0  0  0
 14 15  2  0  0  0  0
 14 16  1  0  0  0  0
 16 17  1  0  0  0  0
 16 21  2  0  0  0  0
 17 18  2  0  0  0  0
 17 36  1  0  0  0  0
 18 19  1  0  0  0  0
 18 37  1  0  0  0  0
 19 20  2  0  0  0  0
 19 38  1  0  0  0  0
 20 21  1  0  0  0  0
 20 39  1  0  0  0  0
 21 22  1  0  0  0  0
 22 23  2  0  0  0  0
M  END
>  <Energy>
57.0282

$$$$

 OpenBabel04232614443D

 39 42  0  0  1  0  0  0  0  0999 V2000
    1.0424   -0.3843    0.2112 C   0  0  0  0  0  0  0  0  0  0  0  0
    2.5688   -0.4368    0.2649 C   0  0  3  0  0  0  0  0  0  0  0  0
    3.1026    0.8447    0.9431 C   0  0  0  0  0  0  0  0  0  0  0  0
    3.9915    0.3023    2.0114 C   0  0  0  0  0  0  0  0  0  0  0  0
    4.6835    1.0481    2.9634 C   0  0  0  0  0  0  0  0  0  0  0  0
    5.5013    0.3821    3.8714 C   0  0  0  0  0  0  0  0  0  0  0  0
    5.6669   -0.9998    3.7747 C   0  0  0  0  0  0  0  0  0  0  0  0
    4.9827   -1.7281    2.7977 C   0  0  0  0  0  0  0  0  0  0  0  0
    4.0715   -1.0888    1.9625 C   0  0  0  0  0  0  0  0  0  0  0  0
    3.1371   -1.5964    1.0133 N   0  0  0  0  0  0  0  0  0  0  0  0
    2.7599   -2.9165    0.7344 C   0  0  0  0  0  0  0  0  0  0  0  0
    1.9970   -3.2007   -0.1971 O   0  0  0  0  0  0  0  0  0  0  0  0
    3.3471   -3.9852    1.6054 C   0  0  0  0  0  0  0  0  0  0  0  0
    2.5534   -5.1761    1.9299 N   0  0  0  0  0  0  0  0  0  0  0  0
    1.3552   -5.0713    2.6017 C   0  0  0  0  0  0  0  0  0  0  0  0
    1.3454   -5.8167    3.6863 N   0  0  0  0  0  0  0  0  0  0  0  0
    2.5209   -6.5262    3.6525 C   0  0  0  0  0  0  0  0  0  0  0  0
    3.0920   -7.3796    4.6092 C   0  0  0  0  0  0  0  0  0  0  0  0
    4.3168   -7.9974    4.3192 C   0  0  0  0  0  0  0  0  0  0  0  0
    4.9503   -7.7901    3.0923 C   0  0  0  0  0  0  0  0  0  0  0  0
    4.4189   -6.9102    2.1441 C   0  0  0  0  0  0  0  0  0  0  0  0
    3.2167   -6.2729    2.4744 C   0  0  0  0  0  0  0  0  0  0  0  0
    0.7135    0.5403   -0.2755 H   0  0  0  0  0  0  0  0  0  0  0  0
    0.6055   -0.4164    1.2157 H   0  0  0  0  0  0  0  0  0  0  0  0
    0.6213   -1.2124   -0.3651 H   0  0  0  0  0  0  0  0  0  0  0  0
    2.9524   -0.5039   -0.7615 H   0  0  0  0  0  0  0  0  0  0  0  0
    2.3087    1.4592    1.3805 H   0  0  0  0  0  0  0  0  0  0  0  0
    3.6788    1.4476    0.2341 H   0  0  0  0  0  0  0  0  0  0  0  0
    4.5785    2.1272    3.0102 H   0  0  0  0  0  0  0  0  0  0  0  0
    6.0260    0.9372    4.6474 H   0  0  0  0  0  0  0  0  0  0  0  0
    6.3335   -1.5148    4.4635 H   0  0  0  0  0  0  0  0  0  0  0  0
    5.2228   -2.7804    2.7446 H   0  0  0  0  0  0  0  0  0  0  0  0
    3.4898   -3.5847    2.6063 H   0  0  0  0  0  0  0  0  0  0  0  0
    4.2920   -4.3086    1.1608 H   0  0  0  0  0  0  0  0  0  0  0  0
    0.5938   -4.3538    2.3228 H   0  0  0  0  0  0  0  0  0  0  0  0
    2.6021   -7.5295    5.5648 H   0  0  0  0  0  0  0  0  0  0  0  0
    4.7776   -8.6465    5.0603 H   0  0  0  0  0  0  0  0  0  0  0  0
    5.8889   -8.2989    2.8809 H   0  0  0  0  0  0  0  0  0  0  0  0
    4.9352   -6.7134    1.2104 H   0  0  0  0  0  0  0  0  0  0  0  0
  1  2  1  0  0  0  0
  1 23  1  0  0  0  0
  1 24  1  0  0  0  0
  1 25  1  0  0  0  0
  2  3  1  0  0  0  0
  2 10  1  0  0  0  0
  2 26  1  0  0  0  0
  3  4  1  0  0  0  0
  3 27  1  0  0  0  0
  3 28  1  0  0  0  0
  4  5  1  0  0  0  0
  4  9  2  0  0  0  0
  5  6  2  0  0  0  0
  5 29  1  0  0  0  0
  6  7  1  0  0  0  0
  6 30  1  0  0  0  0
  7  8  2  0  0  0  0
  7 31  1  0  0  0  0
  8  9  1  0  0  0  0
  8 32  1  0  0  0  0
  9 10  1  0  0  0  0
 10 11  1  0  0  0  0
 11 12  2  0  0  0  0
 11 13  1  0  0  0  0
 13 14  1  0  0  0  0
 13 33  1  0  0  0  0
 13 34  1  0  0  0  0
 14 15  1  0  0  0  0
 14 22  1  0  0  0  0
 15 16  2  0  0  0  0
 15 35  1  0  0  0  0
 16 17  1  0  0  0  0
 17 18  1  0  0  0  0
 17 22  2  0  0  0  0
 18 19  2  0  0  0  0
 18 36  1  0  0  0  0
 19 20  1  0  0  0  0
 19 37  1  0  0  0  0
 20 21  2  0  0  0  0
 20 38  1  0  0  0  0
 21 22  1  0  0  0  0
 21 39  1  0  0  0  0
M  END
>  <Energy>
68.4758

$$$$

 OpenBabel04232614443D

 33 36  0  0  0  0  0  0  0  0999 V2000
    0.6616   -0.0773   -0.0720 C   0  0  0  0  0  0  0  0  0  0  0  0
    2.0940   -0.1769    0.0835 N   0  0  0  0  0  0  0  0  0  0  0  0
    2.8829   -1.3156    0.1194 C   0  0  0  0  0  0  0  0  0  0  0  0
    2.4376   -2.7073   -0.0518 C   0  0  0  0  0  0  0  0  0  0  0  0
    1.3916   -3.2182    0.7166 C   0  0  0  0  0  0  0  0  0  0  0  0
    0.9038   -4.4746    0.6235 N   0  0  0  0  0  0  0  0  0  0  0  0
    1.5250   -5.2913   -0.2549 C   0  0  0  0  0  0  0  0  0  0  0  0
    2.6100   -4.9245   -1.0524 C   0  0  0  0  0  0  0  0  0  0  0  0
    3.2265   -5.8460   -1.9215 C   0  0  0  0  0  0  0  0  0  0  0  0
    4.3197   -5.4737   -2.6998 C   0  0  0  0  0  0  0  0  0  0  0  0
    4.7991   -4.1725   -2.6334 C   0  0  0  0  0  0  0  0  0  0  0  0
    4.1841   -3.2485   -1.7841 C   0  0  0  0  0  0  0  0  0  0  0  0
    3.0836   -3.5973   -0.9594 C   0  0  0  0  0  0  0  0  0  0  0  0
    4.1537   -0.9723    0.2647 N   0  0  0  0  0  0  0  0  0  0  0  0
    4.2049    0.3906    0.2293 C   0  0  0  0  0  0  0  0  0  0  0  0
    5.3212    1.2406    0.2551 C   0  0  0  0  0  0  0  0  0  0  0  0
    5.1165    2.6239    0.1756 C   0  0  0  0  0  0  0  0  0  0  0  0
    3.8255    3.1374    0.0893 C   0  0  0  0  0  0  0  0  0  0  0  0
    3.6598    4.4657    0.0110 F   0  0  0  0  0  0  0  0  0  0  0  0
    2.7098    2.3003    0.0704 C   0  0  0  0  0  0  0  0  0  0  0  0
    1.4728    2.8045   -0.0223 F   0  0  0  0  0  0  0  0  0  0  0  0
    2.9269    0.9215    0.1286 C   0  0  0  0  0  0  0  0  0  0  0  0
    0.2171   -1.0505   -0.2751 H   0  0  0  0  0  0  0  0  0  0  0  0
    0.4460    0.5859   -0.9146 H   0  0  0  0  0  0  0  0  0  0  0  0
    0.2479    0.3364    0.8519 H   0  0  0  0  0  0  0  0  0  0  0  0
    0.8947   -2.6110    1.4694 H   0  0  0  0  0  0  0  0  0  0  0  0
    1.1146   -6.2981   -0.2969 H   0  0  0  0  0  0  0  0  0  0  0  0
    2.8657   -6.8713   -1.9848 H   0  0  0  0  0  0  0  0  0  0  0  0
    4.8004   -6.1964   -3.3542 H   0  0  0  0  0  0  0  0  0  0  0  0
    5.6545   -3.8701   -3.2313 H   0  0  0  0  0  0  0  0  0  0  0  0
    4.5971   -2.2407   -1.7622 H   0  0  0  0  0  0  0  0  0  0  0  0
    6.3196    0.8214    0.3164 H   0  0  0  0  0  0  0  0  0  0  0  0
    5.9651    3.3017    0.1726 H   0  0  0  0  0  0  0  0  0  0  0  0
  1  2  1  0  0  0  0
  1 23  1  0  0  0  0
  1 24  1  0  0  0  0
  1 25  1  0  0  0  0
  2  3  1  0  0  0  0
  2 22  1  0  0  0  0
  3  4  1  0  0  0  0
  3 14  2  0  0  0  0
  4  5  1  0  0  0  0
  4 13  2  0  0  0  0
  5  6  2  0  0  0  0
  5 26  1  0  0  0  0
  6  7  1  0  0  0  0
  7  8  2  0  0  0  0
  7 27  1  0  0  0  0
  8  9  1  0  0  0  0
  8 13  1  0  0  0  0
  9 10  2  0  0  0  0
  9 28  1  0  0  0  0
 10 11  1  0  0  0  0
 10 29  1  0  0  0  0
 11 12  2  0  0  0  0
 11 30  1  0  0  0  0
 12 13  1  0  0  0  0
 12 31  1  0  0  0  0
 14 15  1  0  0  0  0
 15 16  1  0  0  0  0
 15 22  2  0  0  0  0
 16 17  2  0  0  0  0
 16 32  1  0  0  0  0
 17 18  1  0  0  0  0
 17 33  1  0  0  0  0
 18 19  1  0  0  0  0
 18 20  2  0  0  0  0
 20 21  1  0  0  0  0
 20 22  1  0  0  0  0
M  END
>  <Energy>
64.4638

$$$$

 OpenBabel04232614443D

 20 21  0  0  0  0  0  0  0  0999 V2000
    1.0240   -0.0120    0.0256 C   0  0  0  0  0  0  0  0  0  0  0  0
    2.5202    0.0448    0.0288 C   0  0  0  0  0  0  0  0  0  0  0  0
    3.2030    1.1990    0.0417 C   0  0  0  0  0  0  0  0  0  0  0  0
    4.6547    1.1944   -0.0294 C   0  0  0  0  0  0  0  0  0  0  0  0
    5.3980    2.3763   -0.0797 C   0  0  0  0  0  0  0  0  0  0  0  0
    6.7885    2.3133   -0.2158 C   0  0  0  0  0  0  0  0  0  0  0  0
    7.8897    4.0739   -0.3378 I   0  0  0  0  0  0  0  0  0  0  0  0
    7.4446    1.0816   -0.2885 C   0  0  0  0  0  0  0  0  0  0  0  0
    6.7060   -0.0990   -0.2185 C   0  0  0  0  0  0  0  0  0  0  0  0
    5.3206   -0.0258   -0.0934 C   0  0  0  0  0  0  0  0  0  0  0  0
    4.6097   -1.2383   -0.0521 O   0  0  0  0  0  0  0  0  0  0  0  0
    3.2213   -1.2652   -0.0016 C   0  0  0  0  0  0  0  0  0  0  0  0
    2.6025   -2.3257    0.0156 O   0  0  0  0  0  0  0  0  0  0  0  0
    0.5777    0.9883    0.0304 H   0  0  0  0  0  0  0  0  0  0  0  0
    0.6534   -0.5466    0.9059 H   0  0  0  0  0  0  0  0  0  0  0  0
    0.6654   -0.5261   -0.8729 H   0  0  0  0  0  0  0  0  0  0  0  0
    2.6927    2.1565    0.0671 H   0  0  0  0  0  0  0  0  0  0  0  0
    4.8954    3.3389   -0.0298 H   0  0  0  0  0  0  0  0  0  0  0  0
    8.5242    1.0276   -0.4053 H   0  0  0  0  0  0  0  0  0  0  0  0
    7.2023   -1.0637   -0.2751 H   0  0  0  0  0  0  0  0  0  0  0  0
  1  2  1  0  0  0  0
  1 14  1  0  0  0  0
  1 15  1  0  0  0  0
  1 16  1  0  0  0  0
  2  3  2  0  0  0  0
  2 12  1  0  0  0  0
  3  4  1  0  0  0  0
  3 17  1  0  0  0  0
  4  5  1  0  0  0  0
  4 10  2  0  0  0  0
  5  6  2  0  0  0  0
  5 18  1  0  0  0  0
  6  7  1  0  0  0  0
  6  8  1  0  0  0  0
  8  9  2  0  0  0  0
  8 19  1  0  0  0  0
  9 10  1  0  0  0  0
  9 20  1  0  0  0  0
 10 11  1  0  0  0  0
 11 12  1  0  0  0  0
 12 13  2  0  0  0  0
M  END
>  <Energy>
33.486

$$$$

 OpenBabel04232614443D

 34 37  0  0  0  0  0  0  0  0999 V2000
    1.1296    0.0538   -0.0994 C   0  0  0  0  0  0  0  0  0  0  0  0
    2.5940   -0.1304   -0.0991 C   0  0  0  0  0  0  0  0  0  0  0  0
    3.4168   -1.2372   -0.0965 C   0  0  0  0  0  0  0  0  0  0  0  0
    4.7551   -0.7529   -0.0921 C   0  0  0  0  0  0  0  0  0  0  0  0
    4.6476    0.6315   -0.0957 C   0  0  0  0  0  0  0  0  0  0  0  0
    5.7289    1.5058   -0.0942 C   0  0  0  0  0  0  0  0  0  0  0  0
    6.9982    0.9183   -0.0867 C   0  0  0  0  0  0  0  0  0  0  0  0
    8.0854    1.7488   -0.0852 O   0  0  0  0  0  0  0  0  0  0  0  0
    7.1656   -0.4782   -0.0809 C   0  0  0  0  0  0  0  0  0  0  0  0
    8.5085   -1.1109   -0.0709 C   0  0  0  0  0  0  0  0  0  0  0  0
    9.5683   -0.5016   -0.0642 O   0  0  0  0  0  0  0  0  0  0  0  0
    8.5438   -2.5805   -0.0716 C   0  0  0  0  0  0  0  0  0  0  0  0
    7.3974   -3.2661   -0.0793 C   0  0  0  0  0  0  0  0  0  0  0  0
    7.4368   -4.7313   -0.0944 C   0  0  0  0  0  0  0  0  0  0  0  0
    7.4503   -5.4529    1.1056 C   0  0  0  0  0  0  0  0  0  0  0  0
    7.5971   -6.8420    1.0891 C   0  0  0  0  0  0  0  0  0  0  0  0
    7.7295   -7.5164   -0.1243 C   0  0  0  0  0  0  0  0  0  0  0  0
    7.7023   -6.8060   -1.3235 C   0  0  0  0  0  0  0  0  0  0  0  0
    7.5547   -5.4176   -1.3099 C   0  0  0  0  0  0  0  0  0  0  0  0
    6.1390   -2.7049   -0.0816 O   0  0  0  0  0  0  0  0  0  0  0  0
    6.0419   -1.3299   -0.0848 C   0  0  0  0  0  0  0  0  0  0  0  0
    3.3406    1.0090   -0.1002 O   0  0  0  0  0  0  0  0  0  0  0  0
    0.6118   -0.9101   -0.0995 H   0  0  0  0  0  0  0  0  0  0  0  0
    0.8136    0.6114   -0.9866 H   0  0  0  0  0  0  0  0  0  0  0  0
    0.8139    0.6106    0.7884 H   0  0  0  0  0  0  0  0  0  0  0  0
    3.0972   -2.2701   -0.0957 H   0  0  0  0  0  0  0  0  0  0  0  0
    5.5713    2.5765   -0.0979 H   0  0  0  0  0  0  0  0  0  0  0  0
    7.8080    2.6786   -0.0920 H   0  0  0  0  0  0  0  0  0  0  0  0
    9.5213   -3.0477   -0.0697 H   0  0  0  0  0  0  0  0  0  0  0  0
    7.3671   -4.9373    2.0595 H   0  0  0  0  0  0  0  0  0  0  0  0
    7.6222   -7.3969    2.0236 H   0  0  0  0  0  0  0  0  0  0  0  0
    7.8599   -8.5958   -0.1352 H   0  0  0  0  0  0  0  0  0  0  0  0
    7.8096   -7.3313   -2.2692 H   0  0  0  0  0  0  0  0  0  0  0  0
    7.5513   -4.8731   -2.2515 H   0  0  0  0  0  0  0  0  0  0  0  0
  1  2  1  0  0  0  0
  1 23  1  0  0  0  0
  1 24  1  0  0  0  0
  1 25  1  0  0  0  0
  2  3  2  0  0  0  0
  2 22  1  0  0  0  0
  3  4  1  0  0  0  0
  3 26  1  0  0  0  0
  4  5  1  0  0  0  0
  4 21  2  0  0  0  0
  5  6  2  0  0  0  0
  5 22  1  0  0  0  0
  6  7  1  0  0  0  0
  6 27  1  0  0  0  0
  7  8  1  0  0  0  0
  7  9  2  0  0  0  0
  8 28  1  0  0  0  0
  9 10  1  0  0  0  0
  9 21  1  0  0  0  0
 10 11  2  0  0  0  0
 10 12  1  0  0  0  0
 12 13  2  0  0  0  0
 12 29  1  0  0  0  0
 13 14  1  0  0  0  0
 13 20  1  0  0  0  0
 14 15  1  0  0  0  0
 14 19  2  0  0  0  0
 15 16  2  0  0  0  0
 15 30  1  0  0  0  0
 16 17  1  0  0  0  0
 16 31  1  0  0  0  0
 17 18  2  0  0  0  0
 17 32  1  0  0  0  0
 18 19  1  0  0  0  0
 18 33  1  0  0  0  0
 19 34  1  0  0  0  0
 20 21  1  0  0  0  0
M  END
>  <Energy>
54.036

$$$$

 OpenBabel04232614443D

 36 40  0  0  0  0  0  0  0  0999 V2000
    0.7089   -0.1142    0.4284 O   0  0  0  0  0  0  0  0  0  0  0  0
    1.9314   -0.0298    0.5081 C   0  0  0  0  0  0  0  0  0  0  0  0
    2.5661    1.0908    1.0025 O   0  0  0  0  0  0  0  0  0  0  0  0
    3.8574    1.3781    0.5282 C   0  0  0  0  0  0  0  0  0  0  0  0
    4.2262    2.7206    0.5755 C   0  0  0  0  0  0  0  0  0  0  0  0
    5.4026    3.1108   -0.0464 C   0  0  0  0  0  0  0  0  0  0  0  0
    6.1974    2.1527   -0.6821 C   0  0  0  0  0  0  0  0  0  0  0  0
    5.8437    0.7935   -0.6585 C   0  0  0  0  0  0  0  0  0  0  0  0
    4.6607    0.3784   -0.0372 C   0  0  0  0  0  0  0  0  0  0  0  0
    4.1575   -0.9955    0.0015 C   0  0  0  0  0  0  0  0  0  0  0  0
    5.0234   -2.0464   -0.1327 N   0  0  0  0  0  0  0  0  0  0  0  0
    4.5006   -3.3101   -0.0613 C   0  0  0  0  0  0  0  0  0  0  0  0
    3.1203   -3.5428    0.0683 C   0  0  0  0  0  0  0  0  0  0  0  0
    2.2630   -2.4577    0.2073 C   0  0  0  0  0  0  0  0  0  0  0  0
    2.8008   -1.1786    0.2116 C   0  0  0  0  0  0  0  0  0  0  0  0
    2.5821   -4.9429    0.1955 C   0  0  0  0  0  0  0  0  0  0  0  0
    3.4315   -5.9440   -0.5803 C   0  0  0  0  0  0  0  0  0  0  0  0
    4.8939   -5.7819   -0.2437 C   0  0  0  0  0  0  0  0  0  0  0  0
    5.7120   -6.9177   -0.1642 C   0  0  0  0  0  0  0  0  0  0  0  0
    7.0610   -6.7821    0.1436 C   0  0  0  0  0  0  0  0  0  0  0  0
    7.5976   -5.5113    0.3475 C   0  0  0  0  0  0  0  0  0  0  0  0
    6.7879   -4.3714    0.2478 C   0  0  0  0  0  0  0  0  0  0  0  0
    5.4195   -4.4780   -0.0434 C   0  0  0  0  0  0  0  0  0  0  0  0
    3.5768    3.4513    1.0501 H   0  0  0  0  0  0  0  0  0  0  0  0
    5.6838    4.1609   -0.0607 H   0  0  0  0  0  0  0  0  0  0  0  0
    7.0935    2.4713   -1.2096 H   0  0  0  0  0  0  0  0  0  0  0  0
    6.4778    0.0693   -1.1670 H   0  0  0  0  0  0  0  0  0  0  0  0
    1.1962   -2.6069    0.3585 H   0  0  0  0  0  0  0  0  0  0  0  0
    1.5504   -4.9911   -0.1719 H   0  0  0  0  0  0  0  0  0  0  0  0
    2.5679   -5.2053    1.2613 H   0  0  0  0  0  0  0  0  0  0  0  0
    3.3095   -5.7954   -1.6608 H   0  0  0  0  0  0  0  0  0  0  0  0
    3.0853   -6.9575   -0.3452 H   0  0  0  0  0  0  0  0  0  0  0  0
    5.2984   -7.9108   -0.3260 H   0  0  0  0  0  0  0  0  0  0  0  0
    7.6915   -7.6640    0.2249 H   0  0  0  0  0  0  0  0  0  0  0  0
    8.6511   -5.4091    0.5942 H   0  0  0  0  0  0  0  0  0  0  0  0
    7.2305   -3.3942    0.4289 H   0  0  0  0  0  0  0  0  0  0  0  0
  1  2  2  0  0  0  0
  2  3  1  0  0  0  0
  2 15  1  0  0  0  0
  3  4  1  0  0  0  0
  4  5  1  0  0  0  0
  4  9  2  0  0  0  0
  5  6  2  0  0  0  0
  5 24  1  0  0  0  0
  6  7  1  0  0  0  0
  6 25  1  0  0  0  0
  7  8  2  0  0  0  0
  7 26  1  0  0  0  0
  8  9  1  0  0  0  0
  8 27  1  0  0  0  0
  9 10  1  0  0  0  0
 10 11  1  0  0  0  0
 10 15  2  0  0  0  0
 11 12  2  0  0  0  0
 12 13  1  0  0  0  0
 12 23  1  0  0  0  0
 13 14  2  0  0  0  0
 13 16  1  0  0  0  0
 14 15  1  0  0  0  0
 14 28  1  0  0  0  0
 16 17  1  0  0  0  0
 16 29  1  0  0  0  0
 16 30  1  0  0  0  0
 17 18  1  0  0  0  0
 17 31  1  0  0  0  0
 17 32  1  0  0  0  0
 18 19  1  0  0  0  0
 18 23  2  0  0  0  0
 19 20  2  0  0  0  0
 19 33  1  0  0  0  0
 20 21  1  0  0  0  0
 20 34  1  0  0  0  0
 21 22  2  0  0  0  0
 21 35  1  0  0  0  0
 22 23  1  0  0  0  0
 22 36  1  0  0  0  0
M  END
>  <Energy>
96.8798

$$$$

 OpenBabel04232614443D

 27 29  0  0  0  0  0  0  0  0999 V2000
    1.3494   -0.0491    0.5815 O   0  0  0  0  0  0  0  0  0  0  0  0
    2.5338   -0.0312    0.2656 C   0  0  0  0  0  0  0  0  0  0  0  0
    3.3316    1.2319    0.2467 C   0  0  0  0  0  0  0  0  0  0  0  0
    3.1029    2.0921    1.2548 C   0  0  0  0  0  0  0  0  0  0  0  0
    3.8648    3.3200    1.4820 C   0  0  0  0  0  0  0  0  0  0  0  0
    5.0336    3.2715    2.2587 C   0  0  0  0  0  0  0  0  0  0  0  0
    5.7550    4.4384    2.5208 C   0  0  0  0  0  0  0  0  0  0  0  0
    5.3103    5.6481    2.0008 C   0  0  0  0  0  0  0  0  0  0  0  0
    5.9960    6.7688    2.2648 F   0  0  0  0  0  0  0  0  0  0  0  0
    4.1623    5.6965    1.2171 C   0  0  0  0  0  0  0  0  0  0  0  0
    3.7414    6.8648    0.7133 F   0  0  0  0  0  0  0  0  0  0  0  0
    3.4343    4.5391    0.9514 C   0  0  0  0  0  0  0  0  0  0  0  0
    4.2991    1.3839   -0.8830 C   0  0  0  0  0  0  0  0  0  0  0  0
    5.6269    0.1640   -0.7119 S   0  0  0  0  0  0  0  0  0  0  0  0
    4.6180   -1.2528   -0.4595 C   0  0  0  0  0  0  0  0  0  0  0  0
    5.2248   -2.8307   -0.6837 S   0  0  0  0  0  0  0  0  0  0  0  0
    3.7153   -3.5298   -0.3013 C   0  0  0  0  0  0  0  0  0  0  0  0
    2.7709   -2.5755    0.0031 C   0  0  0  0  0  0  0  0  0  0  0  0
    3.2925   -1.2372   -0.0638 C   0  0  0  0  0  0  0  0  0  0  0  0
    2.3598    1.8712    2.0214 H   0  0  0  0  0  0  0  0  0  0  0  0
    5.3823    2.3270    2.6731 H   0  0  0  0  0  0  0  0  0  0  0  0
    6.6527    4.4116    3.1307 H   0  0  0  0  0  0  0  0  0  0  0  0
    2.5364    4.6069    0.3449 H   0  0  0  0  0  0  0  0  0  0  0  0
    4.7435    2.3824   -0.9277 H   0  0  0  0  0  0  0  0  0  0  0  0
    3.7847    1.2291   -1.8403 H   0  0  0  0  0  0  0  0  0  0  0  0
    3.5936   -4.6048   -0.3127 H   0  0  0  0  0  0  0  0  0  0  0  0
    1.7503   -2.8152    0.2829 H   0  0  0  0  0  0  0  0  0  0  0  0
  1  2  2  0  0  0  0
  2  3  1  0  0  0  0
  2 19  1  0  0  0  0
  3  4  2  0  0  0  0
  3 13  1  0  0  0  0
  4  5  1  0  0  0  0
  4 20  1  0  0  0  0
  5  6  1  0  0  0  0
  5 12  2  0  0  0  0
  6  7  2  0  0  0  0
  6 21  1  0  0  0  0
  7  8  1  0  0  0  0
  7 22  1  0  0  0  0
  8  9  1  0  0  0  0
  8 10  2  0  0  0  0
 10 11  1  0  0  0  0
 10 12  1  0  0  0  0
 12 23  1  0  0  0  0
 13 14  1  0  0  0  0
 13 24  1  0  0  0  0
 13 25  1  0  0  0  0
 14 15  1  0  0  0  0
 15 16  1  0  0  0  0
 15 19  2  0  0  0  0
 16 17  1  0  0  0  0
 17 18  2  0  0  0  0
 17 26  1  0  0  0  0
 18 19  1  0  0  0  0
 18 27  1  0  0  0  0
M  END
>  <Energy>
33.4611

$$$$

 OpenBabel04232614443D

 30 32  0  0  0  0  0  0  0  0999 V2000
    1.2092    0.5910   -1.6957 C   0  0  0  0  0  0  0  0  0  0  0  0
    2.7128    0.6208   -1.4724 C   0  0  0  0  0  0  0  0  0  0  0  0
    3.0984    1.8276   -0.1781 S   0  0  0  0  0  0  0  0  0  0  0  0
    4.8317    1.7610   -0.1556 C   0  0  0  0  0  0  0  0  0  0  0  0
    5.5559    1.3722   -1.1560 N   0  0  0  0  0  0  0  0  0  0  0  0
    6.8855    1.5095   -0.8280 C   0  0  0  0  0  0  0  0  0  0  0  0
    7.9262    1.2077   -1.6180 C   0  0  0  0  0  0  0  0  0  0  0  0
    7.7800    0.6617   -2.9675 C   0  0  0  0  0  0  0  0  0  0  0  0
    7.6877    1.5345   -4.0739 C   0  0  0  0  0  0  0  0  0  0  0  0
    7.5172    1.0307   -5.3678 C   0  0  0  0  0  0  0  0  0  0  0  0
    7.4370   -0.3364   -5.5154 C   0  0  0  0  0  0  0  0  0  0  0  0
    7.5366   -1.1893   -4.4409 C   0  0  0  0  0  0  0  0  0  0  0  0
    7.7152   -0.7244   -3.1554 C   0  0  0  0  0  0  0  0  0  0  0  0
    7.4271   -2.4955   -4.8040 O   0  0  0  0  0  0  0  0  0  0  0  0
    7.1807   -2.3621   -6.2192 C   0  0  0  0  0  0  0  0  0  0  0  0
    7.2489   -0.9992   -6.6875 O   0  0  0  0  0  0  0  0  0  0  0  0
    7.1506    2.0643    0.5291 C   0  0  0  0  0  0  0  0  0  0  0  0
    8.2313    2.3285    1.0247 O   0  0  0  0  0  0  0  0  0  0  0  0
    5.6127    2.2962    1.3090 S   0  0  0  0  0  0  0  0  0  0  0  0
    0.9570   -0.1483   -2.4611 H   0  0  0  0  0  0  0  0  0  0  0  0
    0.8359    1.5630   -2.0402 H   0  0  0  0  0  0  0  0  0  0  0  0
    0.6693    0.3184   -0.7816 H   0  0  0  0  0  0  0  0  0  0  0  0
    3.2144    0.8882   -2.4075 H   0  0  0  0  0  0  0  0  0  0  0  0
    3.0604   -0.3687   -1.1592 H   0  0  0  0  0  0  0  0  0  0  0  0
    8.9500    1.3561   -1.2817 H   0  0  0  0  0  0  0  0  0  0  0  0
    7.7390    2.6103   -3.9262 H   0  0  0  0  0  0  0  0  0  0  0  0
    7.4395    1.6927   -6.2222 H   0  0  0  0  0  0  0  0  0  0  0  0
    7.7879   -1.4175   -2.3251 H   0  0  0  0  0  0  0  0  0  0  0  0
    6.1807   -2.7563   -6.4366 H   0  0  0  0  0  0  0  0  0  0  0  0
    7.9200   -2.9593   -6.7641 H   0  0  0  0  0  0  0  0  0  0  0  0
  1  2  1  0  0  0  0
  1 20  1  0  0  0  0
  1 21  1  0  0  0  0
  1 22  1  0  0  0  0
  2  3  1  0  0  0  0
  2 23  1  0  0  0  0
  2 24  1  0  0  0  0
  3  4  1  0  0  0  0
  4  5  2  0  0  0  0
  4 19  1  0  0  0  0
  5  6  1  0  0  0  0
  6  7  2  0  0  0  0
  6 17  1  0  0  0  0
  7  8  1  0  0  0  0
  7 25  1  0  0  0  0
  8  9  1  0  0  0  0
  8 13  2  0  0  0  0
  9 10  2  0  0  0  0
  9 26  1  0  0  0  0
 10 11  1  0  0  0  0
 10 27  1  0  0  0  0
 11 12  2  0  0  0  0
 11 16  1  0  0  0  0
 12 13  1  0  0  0  0
 12 14  1  0  0  0  0
 13 28  1  0  0  0  0
 14 15  1  0  0  0  0
 15 16  1  0  0  0  0
 15 29  1  0  0  0  0
 15 30  1  0  0  0  0
 17 18  2  0  0  0  0
 17 19  1  0  0  0  0
M  END
>  <Energy>
9.37128

$$$$

 OpenBabel04232614443D

 42 44  0  0  0  0  0  0  0  0999 V2000
    1.3788    0.0360    1.3859 C   0  0  0  0  0  0  0  0  0  0  0  0
    2.6637    0.0021    0.6466 C   0  0  0  0  0  0  0  0  0  0  0  0
    3.4017    1.1395    0.4217 N   0  0  0  0  0  0  0  0  0  0  0  0
    4.5588    0.8207   -0.3052 C   0  0  0  0  0  0  0  0  0  0  0  0
    5.4188    1.5995   -0.6739 O   0  0  0  0  0  0  0  0  0  0  0  0
    4.4772   -0.5714   -0.5028 N   0  0  0  0  0  0  0  0  0  0  0  0
    5.4410   -1.3412   -1.2391 C   0  0  0  0  0  0  0  0  0  0  0  0
    3.3154   -1.0397    0.0849 C   0  0  0  0  0  0  0  0  0  0  0  0
    2.8942   -2.4337    0.0552 C   0  0  0  0  0  0  0  0  0  0  0  0
    2.1113   -2.9052   -1.0033 C   0  0  0  0  0  0  0  0  0  0  0  0
    1.7155   -4.2430   -1.0455 C   0  0  0  0  0  0  0  0  0  0  0  0
    2.1096   -5.1363   -0.0403 C   0  0  0  0  0  0  0  0  0  0  0  0
    1.7345   -6.6044   -0.0886 C   0  0  0  0  0  0  0  0  0  0  0  0
    2.2834   -7.2886   -1.3521 C   0  0  0  0  0  0  0  0  0  0  0  0
    1.9309   -8.7731   -1.3673 C   0  0  0  0  0  0  0  0  0  0  0  0
    0.4257   -8.9883   -1.2327 C   0  0  0  0  0  0  0  0  0  0  0  0
   -0.1377   -8.2966    0.0065 C   0  0  0  0  0  0  0  0  0  0  0  0
    0.2171   -6.8104    0.0341 C   0  0  0  0  0  0  0  0  0  0  0  0
    2.8826   -4.6533    1.0261 C   0  0  0  0  0  0  0  0  0  0  0  0
    3.2613   -3.3102    1.0787 C   0  0  0  0  0  0  0  0  0  0  0  0
    1.1500    1.0466    1.7393 H   0  0  0  0  0  0  0  0  0  0  0  0
    1.4225   -0.6186    2.2619 H   0  0  0  0  0  0  0  0  0  0  0  0
    0.5516   -0.2873    0.7460 H   0  0  0  0  0  0  0  0  0  0  0  0
    3.1733    2.0795    0.7051 H   0  0  0  0  0  0  0  0  0  0  0  0
    6.2241   -0.6891   -1.6377 H   0  0  0  0  0  0  0  0  0  0  0  0
    4.9430   -1.8413   -2.0745 H   0  0  0  0  0  0  0  0  0  0  0  0
    5.9013   -2.0838   -0.5810 H   0  0  0  0  0  0  0  0  0  0  0  0
    1.8140   -2.2366   -1.8081 H   0  0  0  0  0  0  0  0  0  0  0  0
    1.1049   -4.5826   -1.8798 H   0  0  0  0  0  0  0  0  0  0  0  0
    2.1996   -7.1023    0.7741 H   0  0  0  0  0  0  0  0  0  0  0  0
    3.3728   -7.1698   -1.4031 H   0  0  0  0  0  0  0  0  0  0  0  0
    1.8754   -6.8199   -2.2567 H   0  0  0  0  0  0  0  0  0  0  0  0
    2.4501   -9.2794   -0.5443 H   0  0  0  0  0  0  0  0  0  0  0  0
    2.2885   -9.2264   -2.2985 H   0  0  0  0  0  0  0  0  0  0  0  0
    0.2109  -10.0612   -1.1859 H   0  0  0  0  0  0  0  0  0  0  0  0
   -0.0775   -8.5984   -2.1260 H   0  0  0  0  0  0  0  0  0  0  0  0
    0.2603   -8.7809    0.9069 H   0  0  0  0  0  0  0  0  0  0  0  0
   -1.2265   -8.4169    0.0340 H   0  0  0  0  0  0  0  0  0  0  0  0
   -0.1516   -6.3661    0.9669 H   0  0  0  0  0  0  0  0  0  0  0  0
   -0.3112   -6.3025   -0.7832 H   0  0  0  0  0  0  0  0  0  0  0  0
    3.2033   -5.3232    1.8204 H   0  0  0  0  0  0  0  0  0  0  0  0
    3.8560   -2.9587    1.9193 H   0  0  0  0  0  0  0  0  0  0  0  0
  1  2  1  0  0  0  0
  1 21  1  0  0  0  0
  1 22  1  0  0  0  0
  1 23  1  0  0  0  0
  2  3  1  0  0  0  0
  2  8  2  0  0  0  0
  3  4  1  0  0  0  0
  3 24  1  0  0  0  0
  4  5  2  0  0  0  0
  4  6  1  0  0  0  0
  6  7  1  0  0  0  0
  6  8  1  0  0  0  0
  7 25  1  0  0  0  0
  7 26  1  0  0  0  0
  7 27  1  0  0  0  0
  8  9  1  0  0  0  0
  9 10  1  0  0  0  0
  9 20  2  0  0  0  0
 10 11  2  0  0  0  0
 10 28  1  0  0  0  0
 11 12  1  0  0  0  0
 11 29  1  0  0  0  0
 12 13  1  0  0  0  0
 12 19  2  0  0  0  0
 13 14  1  0  0  0  0
 13 18  1  0  0  0  0
 13 30  1  0  0  0  0
 14 15  1  0  0  0  0
 14 31  1  0  0  0  0
 14 32  1  0  0  0  0
 15 16  1  0  0  0  0
 15 33  1  0  0  0  0
 15 34  1  0  0  0  0
 16 17  1  0  0  0  0
 16 35  1  0  0  0  0
 16 36  1  0  0  0  0
 17 18  1  0  0  0  0
 17 37  1  0  0  0  0
 17 38  1  0  0  0  0
 18 39  1  0  0  0  0
 18 40  1  0  0  0  0
 19 20  1  0  0  0  0
 19 41  1  0  0  0  0
 20 42  1  0  0  0  0
M  END
>  <Energy>
12.9483

$$$$

 OpenBabel04232614443D

 25 27  0  0  0  0  0  0  0  0999 V2000
    6.2114   -2.2741   -5.4557 Cl  0  0  0  0  0  0  0  0  0  0  0  0
    5.7050   -1.6534   -3.9333 C   0  0  0  0  0  0  0  0  0  0  0  0
    6.6529   -1.1908   -3.0238 C   0  0  0  0  0  0  0  0  0  0  0  0
    6.2403   -0.6892   -1.7858 C   0  0  0  0  0  0  0  0  0  0  0  0
    4.8789   -0.6277   -1.4607 C   0  0  0  0  0  0  0  0  0  0  0  0
    4.3208   -0.0355    0.1270 S   0  0  0  0  0  0  0  0  0  0  0  0
    4.8404    1.6429    0.0739 C   0  0  0  0  0  0  0  0  0  0  0  0
    5.5540    2.1456   -0.9064 N   0  0  0  0  0  0  0  0  0  0  0  0
    5.8354    3.4760   -0.6538 C   0  0  0  0  0  0  0  0  0  0  0  0
    6.5911    4.3295   -1.4825 C   0  0  0  0  0  0  0  0  0  0  0  0
    6.8050    5.6582   -1.1015 C   0  0  0  0  0  0  0  0  0  0  0  0
    6.2725    6.1443    0.0885 C   0  0  0  0  0  0  0  0  0  0  0  0
    5.5178    5.3177    0.9276 C   0  0  0  0  0  0  0  0  0  0  0  0
    5.3134    3.9836    0.5371 C   0  0  0  0  0  0  0  0  0  0  0  0
    4.4514    2.7302    1.3438 S   0  0  0  0  0  0  0  0  0  0  0  0
    3.9377   -1.1108   -2.3790 C   0  0  0  0  0  0  0  0  0  0  0  0
    4.3492   -1.6208   -3.6146 C   0  0  0  0  0  0  0  0  0  0  0  0
    7.7112   -1.2151   -3.2686 H   0  0  0  0  0  0  0  0  0  0  0  0
    6.9899   -0.3295   -1.0846 H   0  0  0  0  0  0  0  0  0  0  0  0
    7.0041    3.9457   -2.4096 H   0  0  0  0  0  0  0  0  0  0  0  0
    7.3916    6.3126   -1.7426 H   0  0  0  0  0  0  0  0  0  0  0  0
    6.4457    7.1807    0.3717 H   0  0  0  0  0  0  0  0  0  0  0  0
    5.1048    5.6990    1.8569 H   0  0  0  0  0  0  0  0  0  0  0  0
    2.8764   -1.0959   -2.1412 H   0  0  0  0  0  0  0  0  0  0  0  0
    3.6088   -1.9903   -4.3190 H   0  0  0  0  0  0  0  0  0  0  0  0
  1  2  1  0  0  0  0
  2  3  1  0  0  0  0
  2 17  2  0  0  0  0
  3  4  2  0  0  0  0
  3 18  1  0  0  0  0
  4  5  1  0  0  0  0
  4 19  1  0  0  0  0
  5  6  1  0  0  0  0
  5 16  2  0  0  0  0
  6  7  1  0  0  0  0
  7  8  2  0  0  0  0
  7 15  1  0  0  0  0
  8  9  1  0  0  0  0
  9 10  1  0  0  0  0
  9 14  2  0  0  0  0
 10 11  2  0  0  0  0
 10 20  1  0  0  0  0
 11 12  1  0  0  0  0
 11 21  1  0  0  0  0
 12 13  2  0  0  0  0
 12 22  1  0  0  0  0
 13 14  1  0  0  0  0
 13 23  1  0  0  0  0
 14 15  1  0  0  0  0
 16 17  1  0  0  0  0
 16 24  1  0  0  0  0
 17 25  1  0  0  0  0
M  END
>  <Energy>
31.1388

$$$$

 OpenBabel04232614443D

 35 37  0  0  0  0  0  0  0  0999 V2000
    1.6780    0.0992   -2.4028 C   0  0  0  0  0  0  0  0  0  0  0  0
    0.3509   -0.1574   -1.8188 C   0  0  0  0  0  0  0  0  0  0  0  0
   -0.3342   -1.2931   -1.4715 C   0  0  0  0  0  0  0  0  0  0  0  0
   -1.5627   -0.8279   -0.9447 C   0  0  0  0  0  0  0  0  0  0  0  0
   -2.5611   -1.6085   -0.4600 N   0  0  0  0  0  0  0  0  0  0  0  0
   -2.6302   -2.9795   -0.4019 C   0  0  0  0  0  0  0  0  0  0  0  0
   -3.6315   -3.7380    0.0630 C   0  0  0  0  0  0  0  0  0  0  0  0
   -3.4947   -5.2214   -0.0371 C   0  0  0  0  0  0  0  0  0  0  0  0
   -2.4045   -5.7380   -0.2567 O   0  0  0  0  0  0  0  0  0  0  0  0
   -4.7351   -6.0458    0.0967 C   0  0  0  0  0  0  0  0  0  0  0  0
   -5.9286   -5.5299   -0.4420 C   0  0  0  0  0  0  0  0  0  0  0  0
   -7.1034   -6.2709   -0.3952 C   0  0  0  0  0  0  0  0  0  0  0  0
   -7.0962   -7.5411    0.1686 C   0  0  0  0  0  0  0  0  0  0  0  0
   -5.9202   -8.0949    0.6937 C   0  0  0  0  0  0  0  0  0  0  0  0
   -5.9490   -9.3936    1.2308 C   0  0  0  0  0  0  0  0  0  0  0  0
   -4.8013   -9.9833    1.7528 C   0  0  0  0  0  0  0  0  0  0  0  0
   -3.6090   -9.2757    1.7565 C   0  0  0  0  0  0  0  0  0  0  0  0
   -3.5660   -7.9801    1.2327 C   0  0  0  0  0  0  0  0  0  0  0  0
   -4.7088   -7.3536    0.6730 C   0  0  0  0  0  0  0  0  0  0  0  0
   -1.6152    0.5087   -0.9841 N   0  0  0  0  0  0  0  0  0  0  0  0
   -0.4149    0.9267   -1.5317 O   0  0  0  0  0  0  0  0  0  0  0  0
    2.2061   -0.8392   -2.5983 H   0  0  0  0  0  0  0  0  0  0  0  0
    2.2895    0.6958   -1.7189 H   0  0  0  0  0  0  0  0  0  0  0  0
    1.5854    0.6402   -3.3491 H   0  0  0  0  0  0  0  0  0  0  0  0
    0.0147   -2.3078   -1.5793 H   0  0  0  0  0  0  0  0  0  0  0  0
   -3.3756   -1.1128   -0.1102 H   0  0  0  0  0  0  0  0  0  0  0  0
   -1.7495   -3.4749   -0.8088 H   0  0  0  0  0  0  0  0  0  0  0  0
   -4.5338   -3.3116    0.4788 H   0  0  0  0  0  0  0  0  0  0  0  0
   -5.9549   -4.5613   -0.9345 H   0  0  0  0  0  0  0  0  0  0  0  0
   -8.0218   -5.8672   -0.8164 H   0  0  0  0  0  0  0  0  0  0  0  0
   -8.0249   -8.1095    0.1834 H   0  0  0  0  0  0  0  0  0  0  0  0
   -6.8752   -9.9657    1.2381 H   0  0  0  0  0  0  0  0  0  0  0  0
   -4.8391  -10.9929    2.1531 H   0  0  0  0  0  0  0  0  0  0  0  0
   -2.7057   -9.7266    2.1592 H   0  0  0  0  0  0  0  0  0  0  0  0
   -2.6058   -7.4684    1.2606 H   0  0  0  0  0  0  0  0  0  0  0  0
  1  2  1  0  0  0  0
  1 22  1  0  0  0  0
  1 23  1  0  0  0  0
  1 24  1  0  0  0  0
  2  3  2  0  0  0  0
  2 21  1  0  0  0  0
  3  4  1  0  0  0  0
  3 25  1  0  0  0  0
  4  5  1  0  0  0  0
  4 20  2  0  0  0  0
  5  6  1  0  0  0  0
  5 26  1  0  0  0  0
  6  7  2  0  0  0  0
  6 27  1  0  0  0  0
  7  8  1  0  0  0  0
  7 28  1  0  0  0  0
  8  9  2  0  0  0  0
  8 10  1  0  0  0  0
 10 11  1  0  0  0  0
 10 19  2  0  0  0  0
 11 12  2  0  0  0  0
 11 29  1  0  0  0  0
 12 13  1  0  0  0  0
 12 30  1  0  0  0  0
 13 14  2  0  0  0  0
 13 31  1  0  0  0  0
 14 15  1  0  0  0  0
 14 19  1  0  0  0  0
 15 16  2  0  0  0  0
 15 32  1  0  0  0  0
 16 17  1  0  0  0  0
 16 33  1  0  0  0  0
 17 18  2  0  0  0  0
 17 34  1  0  0  0  0
 18 19  1  0  0  0  0
 18 35  1  0  0  0  0
 20 21  1  0  0  0  0
M  END
>  <Energy>
43.9094

$$$$

 OpenBabel04232614443D

 36 38  0  0  0  0  0  0  0  0999 V2000
    1.0935    1.6030    1.1265 C   0  0  0  0  0  0  0  0  0  0  0  0
    2.5863    1.5718    1.1264 C   0  0  0  0  0  0  0  0  0  0  0  0
    3.2925    0.5912    1.7072 C   0  0  0  0  0  0  0  0  0  0  0  0
    4.7371    0.5652    1.7109 C   0  0  0  0  0  0  0  0  0  0  0  0
    5.4378   -0.4192    2.2923 C   0  0  0  0  0  0  0  0  0  0  0  0
    6.9304   -0.4191    2.2894 C   0  0  0  0  0  0  0  0  0  0  0  0
    7.6054    0.5291    1.7041 N   0  0  0  0  0  0  0  0  0  0  0  0
    9.0167    0.4969    1.7249 C   0  0  0  0  0  0  0  0  0  0  0  0
    9.7205    1.5242    1.0916 C   0  0  0  0  0  0  0  0  0  0  0  0
   11.1210    1.5443    1.0830 C   0  0  0  0  0  0  0  0  0  0  0  0
   11.6802    2.6075    0.4272 O   0  0  0  0  0  0  0  0  0  0  0  0
   13.1014    2.6669    0.3982 C   0  0  0  0  0  0  0  0  0  0  0  0
   11.8281    0.5200    1.7183 C   0  0  0  0  0  0  0  0  0  0  0  0
   11.1457   -0.5182    2.3573 C   0  0  0  0  0  0  0  0  0  0  0  0
    9.7501   -0.5200    2.3544 C   0  0  0  0  0  0  0  0  0  0  0  0
    8.9951   -1.5300    2.9756 N   0  0  0  0  0  0  0  0  0  0  0  0
    9.4206   -2.6419    3.6616 C   0  0  0  0  0  0  0  0  0  0  0  0
    8.3101   -3.3367    4.0870 C   0  0  0  0  0  0  0  0  0  0  0  0
    7.1723   -2.6220    3.6447 C   0  0  0  0  0  0  0  0  0  0  0  0
    7.6173   -1.5053    2.9582 C   0  0  0  0  0  0  0  0  0  0  0  0
    0.7396    2.4959    0.6013 H   0  0  0  0  0  0  0  0  0  0  0  0
    0.7040    1.6399    2.1486 H   0  0  0  0  0  0  0  0  0  0  0  0
    0.6844    0.7278    0.6126 H   0  0  0  0  0  0  0  0  0  0  0  0
    3.0932    2.3944    0.6273 H   0  0  0  0  0  0  0  0  0  0  0  0
    2.7687   -0.2241    2.2021 H   0  0  0  0  0  0  0  0  0  0  0  0
    5.2565    1.3868    1.2200 H   0  0  0  0  0  0  0  0  0  0  0  0
    4.9366   -1.2420    2.7843 H   0  0  0  0  0  0  0  0  0  0  0  0
    9.1682    2.3204    0.5986 H   0  0  0  0  0  0  0  0  0  0  0  0
   13.3907    3.5624   -0.1600 H   0  0  0  0  0  0  0  0  0  0  0  0
   13.5221    1.8002   -0.1228 H   0  0  0  0  0  0  0  0  0  0  0  0
   13.5126    2.7577    1.4093 H   0  0  0  0  0  0  0  0  0  0  0  0
   12.9119    0.4993    1.7349 H   0  0  0  0  0  0  0  0  0  0  0  0
   11.7227   -1.2988    2.8414 H   0  0  0  0  0  0  0  0  0  0  0  0
   10.4692   -2.8616    3.7989 H   0  0  0  0  0  0  0  0  0  0  0  0
    8.3202   -4.2586    4.6544 H   0  0  0  0  0  0  0  0  0  0  0  0
    6.1423   -2.9051    3.8169 H   0  0  0  0  0  0  0  0  0  0  0  0
  1  2  1  0  0  0  0
  1 21  1  0  0  0  0
  1 22  1  0  0  0  0
  1 23  1  0  0  0  0
  2  3  2  0  0  0  0
  2 24  1  0  0  0  0
  3  4  1  0  0  0  0
  3 25  1  0  0  0  0
  4  5  2  0  0  0  0
  4 26  1  0  0  0  0
  5  6  1  0  0  0  0
  5 27  1  0  0  0  0
  6  7  2  0  0  0  0
  6 20  1  0  0  0  0
  7  8  1  0  0  0  0
  8  9  1  0  0  0  0
  8 15  2  0  0  0  0
  9 10  2  0  0  0  0
  9 28  1  0  0  0  0
 10 11  1  0  0  0  0
 10 13  1  0  0  0  0
 11 12  1  0  0  0  0
 12 29  1  0  0  0  0
 12 30  1  0  0  0  0
 12 31  1  0  0  0  0
 13 14  2  0  0  0  0
 13 32  1  0  0  0  0
 14 15  1  0  0  0  0
 14 33  1  0  0  0  0
 15 16  1  0  0  0  0
 16 17  1  0  0  0  0
 16 20  1  0  0  0  0
 17 18  2  0  0  0  0
 17 34  1  0  0  0  0
 18 19  1  0  0  0  0
 18 35  1  0  0  0  0
 19 20  2  0  0  0  0
 19 36  1  0  0  0  0
M  END
>  <Energy>
32.9002

$$$$

 OpenBabel04232614443D

 38 40  0  0  0  0  0  0  0  0999 V2000
    2.1059   -1.1282    4.5685 C   0  0  0  0  0  0  0  0  0  0  0  0
    3.4216   -0.8226    4.1257 O   0  0  0  0  0  0  0  0  0  0  0  0
    3.5499    0.2066    3.2345 C   0  0  0  0  0  0  0  0  0  0  0  0
    2.5018    0.8979    2.6240 C   0  0  0  0  0  0  0  0  0  0  0  0
    2.7722    1.9459    1.7425 C   0  0  0  0  0  0  0  0  0  0  0  0
    4.0907    2.3066    1.4651 C   0  0  0  0  0  0  0  0  0  0  0  0
    5.1554    1.6177    2.0619 C   0  0  0  0  0  0  0  0  0  0  0  0
    6.5373    1.9965    1.7939 C   0  0  0  0  0  0  0  0  0  0  0  0
    6.8972    3.0751    1.0811 N   0  0  0  0  0  0  0  0  0  0  0  0
    8.2339    3.0133    1.1457 N   0  0  0  0  0  0  0  0  0  0  0  0
    8.6706    1.9197    1.8422 C   0  0  0  0  0  0  0  0  0  0  0  0
   10.0853    1.5967    2.0546 C   0  0  0  0  0  0  0  0  0  0  0  0
   11.0201    1.9254    1.0507 C   0  0  0  0  0  0  0  0  0  0  0  0
   12.3869    1.6650    1.2049 C   0  0  0  0  0  0  0  0  0  0  0  0
   13.3633    1.9995    0.1174 C   0  0  0  0  0  0  0  0  0  0  0  0
   12.8319    1.0748    2.3883 C   0  0  0  0  0  0  0  0  0  0  0  0
   11.9214    0.7235    3.3854 C   0  0  0  0  0  0  0  0  0  0  0  0
   10.5450    0.9673    3.2301 C   0  0  0  0  0  0  0  0  0  0  0  0
    9.6111    0.5295    4.3293 C   0  0  0  0  0  0  0  0  0  0  0  0
    7.6079    1.2735    2.2767 N   0  0  0  0  0  0  0  0  0  0  0  0
    4.8696    0.5623    2.9386 C   0  0  0  0  0  0  0  0  0  0  0  0
    2.1854   -1.8802    5.3601 H   0  0  0  0  0  0  0  0  0  0  0  0
    1.5123   -1.5588    3.7551 H   0  0  0  0  0  0  0  0  0  0  0  0
    1.6115   -0.2495    4.9972 H   0  0  0  0  0  0  0  0  0  0  0  0
    1.4637    0.6466    2.8162 H   0  0  0  0  0  0  0  0  0  0  0  0
    1.9542    2.4852    1.2715 H   0  0  0  0  0  0  0  0  0  0  0  0
    4.2845    3.1312    0.7832 H   0  0  0  0  0  0  0  0  0  0  0  0
    8.7841    3.7439    0.7129 H   0  0  0  0  0  0  0  0  0  0  0  0
   10.6828    2.3657    0.1150 H   0  0  0  0  0  0  0  0  0  0  0  0
   12.8599    2.4274   -0.7560 H   0  0  0  0  0  0  0  0  0  0  0  0
   13.8858    1.0948   -0.2102 H   0  0  0  0  0  0  0  0  0  0  0  0
   14.0949    2.7308    0.4754 H   0  0  0  0  0  0  0  0  0  0  0  0
   13.8898    0.8690    2.5370 H   0  0  0  0  0  0  0  0  0  0  0  0
   12.2942    0.2479    4.2905 H   0  0  0  0  0  0  0  0  0  0  0  0
   10.1622    0.1189    5.1818 H   0  0  0  0  0  0  0  0  0  0  0  0
    8.9424   -0.2588    3.9683 H   0  0  0  0  0  0  0  0  0  0  0  0
    9.0266    1.3766    4.7008 H   0  0  0  0  0  0  0  0  0  0  0  0
    5.6823    0.0139    3.4116 H   0  0  0  0  0  0  0  0  0  0  0  0
  1  2  1  0  0  0  0
  1 22  1  0  0  0  0
  1 23  1  0  0  0  0
  1 24  1  0  0  0  0
  2  3  1  0  0  0  0
  3  4  1  0  0  0  0
  3 21  2  0  0  0  0
  4  5  2  0  0  0  0
  4 25  1  0  0  0  0
  5  6  1  0  0  0  0
  5 26  1  0  0  0  0
  6  7  2  0  0  0  0
  6 27  1  0  0  0  0
  7  8  1  0  0  0  0
  7 21  1  0  0  0  0
  8  9  2  0  0  0  0
  8 20  1  0  0  0  0
  9 10  1  0  0  0  0
 10 11  1  0  0  0  0
 10 28  1  0  0  0  0
 11 12  1  0  0  0  0
 11 20  2  0  0  0  0
 12 13  1  0  0  0  0
 12 18  2  0  0  0  0
 13 14  2  0  0  0  0
 13 29  1  0  0  0  0
 14 15  1  0  0  0  0
 14 16  1  0  0  0  0
 15 30  1  0  0  0  0
 15 31  1  0  0  0  0
 15 32  1  0  0  0  0
 16 17  2  0  0  0  0
 16 33  1  0  0  0  0
 17 18  1  0  0  0  0
 17 34  1  0  0  0  0
 18 19  1  0  0  0  0
 19 35  1  0  0  0  0
 19 36  1  0  0  0  0
 19 37  1  0  0  0  0
 21 38  1  0  0  0  0
M  END
>  <Energy>
60.4189

$$$$

 OpenBabel04232614443D

 31 33  0  0  0  0  0  0  0  0999 V2000
    1.9706    0.4684    0.3422 C   0  0  0  0  0  0  0  0  0  0  0  0
    1.1889    0.0705   -1.2440 S   0  0  0  0  0  0  0  0  0  0  0  0
    2.6239   -0.6214   -2.0760 C   0  0  0  0  0  0  0  0  0  0  0  0
    3.3266    0.2730   -2.9037 C   0  0  0  0  0  0  0  0  0  0  0  0
    4.5077   -0.1124   -3.5354 C   0  0  0  0  0  0  0  0  0  0  0  0
    5.0006   -1.3977   -3.3518 C   0  0  0  0  0  0  0  0  0  0  0  0
    4.3024   -2.3026   -2.5491 C   0  0  0  0  0  0  0  0  0  0  0  0
    3.0993   -1.9412   -1.9089 C   0  0  0  0  0  0  0  0  0  0  0  0
    2.4468   -2.9532   -1.0830 C   0  0  0  0  0  0  0  0  0  0  0  0
    2.9648   -3.9664   -0.4165 N   0  0  0  0  0  0  0  0  0  0  0  0
    1.9133   -4.5795    0.2435 N   0  0  0  0  0  0  0  0  0  0  0  0
    0.8267   -3.9139   -0.0914 C   0  0  0  0  0  0  0  0  0  0  0  0
   -0.5460   -4.0287    0.3877 C   0  0  0  0  0  0  0  0  0  0  0  0
   -0.8510   -4.9172    1.4287 C   0  0  0  0  0  0  0  0  0  0  0  0
   -2.1454   -4.9844    1.9526 C   0  0  0  0  0  0  0  0  0  0  0  0
   -3.1511   -4.1698    1.4373 C   0  0  0  0  0  0  0  0  0  0  0  0
   -2.8690   -3.2958    0.3897 C   0  0  0  0  0  0  0  0  0  0  0  0
   -1.5749   -3.2276   -0.1325 C   0  0  0  0  0  0  0  0  0  0  0  0
    1.0867   -2.8994   -0.9694 O   0  0  0  0  0  0  0  0  0  0  0  0
    1.2121    0.8429    1.0340 H   0  0  0  0  0  0  0  0  0  0  0  0
    2.7292    1.2433    0.2026 H   0  0  0  0  0  0  0  0  0  0  0  0
    2.4364   -0.4168    0.7834 H   0  0  0  0  0  0  0  0  0  0  0  0
    2.9635    1.2894   -3.0478 H   0  0  0  0  0  0  0  0  0  0  0  0
    5.0455    0.5968   -4.1600 H   0  0  0  0  0  0  0  0  0  0  0  0
    5.9288   -1.6996   -3.8308 H   0  0  0  0  0  0  0  0  0  0  0  0
    4.7050   -3.3078   -2.4221 H   0  0  0  0  0  0  0  0  0  0  0  0
   -0.0747   -5.5530    1.8514 H   0  0  0  0  0  0  0  0  0  0  0  0
   -2.3637   -5.6660    2.7713 H   0  0  0  0  0  0  0  0  0  0  0  0
   -4.1536   -4.2111    1.8552 H   0  0  0  0  0  0  0  0  0  0  0  0
   -3.6511   -2.6590   -0.0148 H   0  0  0  0  0  0  0  0  0  0  0  0
   -1.3767   -2.5280   -0.9435 H   0  0  0  0  0  0  0  0  0  0  0  0
  1  2  1  0  0  0  0
  1 20  1  0  0  0  0
  1 21  1  0  0  0  0
  1 22  1  0  0  0  0
  2  3  1  0  0  0  0
  3  4  1  0  0  0  0
  3  8  2  0  0  0  0
  4  5  2  0  0  0  0
  4 23  1  0  0  0  0
  5  6  1  0  0  0  0
  5 24  1  0  0  0  0
  6  7  2  0  0  0  0
  6 25  1  0  0  0  0
  7  8  1  0  0  0  0
  7 26  1  0  0  0  0
  8  9  1  0  0  0  0
  9 10  2  0  0  0  0
  9 19  1  0  0  0  0
 10 11  1  0  0  0  0
 11 12  2  0  0  0  0
 12 13  1  0  0  0  0
 12 19  1  0  0  0  0
 13 14  1  0  0  0  0
 13 18  2  0  0  0  0
 14 15  2  0  0  0  0
 14 27  1  0  0  0  0
 15 16  1  0  0  0  0
 15 28  1  0  0  0  0
 16 17  2  0  0  0  0
 16 29  1  0  0  0  0
 17 18  1  0  0  0  0
 17 30  1  0  0  0  0
 18 31  1  0  0  0  0
M  END
>  <Energy>
67.418

$$$$

 OpenBabel04232614443D

 32 34  0  0  0  0  0  0  0  0999 V2000
    2.3865    1.0972   -1.4094 C   0  0  0  0  0  0  0  0  0  0  0  0
    2.4917    0.0802   -0.4176 O   0  0  0  0  0  0  0  0  0  0  0  0
    3.1191   -1.0650   -0.8236 C   0  0  0  0  0  0  0  0  0  0  0  0
    4.0996   -1.1358   -1.8072 C   0  0  0  0  0  0  0  0  0  0  0  0
    4.6682   -2.3706   -2.1387 C   0  0  0  0  0  0  0  0  0  0  0  0
    4.2857   -3.5652   -1.4977 C   0  0  0  0  0  0  0  0  0  0  0  0
    4.9151   -4.8492   -1.8783 C   0  0  0  0  0  0  0  0  0  0  0  0
    5.0801   -5.9090   -0.9941 C   0  0  0  0  0  0  0  0  0  0  0  0
    5.7465   -7.0443   -1.4394 C   0  0  0  0  0  0  0  0  0  0  0  0
    5.9288   -8.1062   -0.5910 O   0  0  0  0  0  0  0  0  0  0  0  0
    6.2503   -7.1205   -2.7454 C   0  0  0  0  0  0  0  0  0  0  0  0
    6.9715   -8.2313   -3.2385 C   0  0  0  0  0  0  0  0  0  0  0  0
    7.4428   -8.2419   -4.5481 C   0  0  0  0  0  0  0  0  0  0  0  0
    7.1814   -7.1516   -5.3630 C   0  0  0  0  0  0  0  0  0  0  0  0
    7.6225   -7.1547   -6.6278 F   0  0  0  0  0  0  0  0  0  0  0  0
    6.4763   -6.0527   -4.8878 C   0  0  0  0  0  0  0  0  0  0  0  0
    6.0133   -6.0128   -3.5818 C   0  0  0  0  0  0  0  0  0  0  0  0
    5.3673   -4.9156   -3.1574 N   0  0  0  0  0  0  0  0  0  0  0  0
    3.3044   -3.4637   -0.4961 C   0  0  0  0  0  0  0  0  0  0  0  0
    2.7389   -2.2280   -0.1565 C   0  0  0  0  0  0  0  0  0  0  0  0
    1.7026    1.8629   -1.0308 H   0  0  0  0  0  0  0  0  0  0  0  0
    1.9641    0.7028   -2.3404 H   0  0  0  0  0  0  0  0  0  0  0  0
    3.3542    1.5762   -1.5886 H   0  0  0  0  0  0  0  0  0  0  0  0
    4.4549   -0.2518   -2.3262 H   0  0  0  0  0  0  0  0  0  0  0  0
    5.4340   -2.3975   -2.9139 H   0  0  0  0  0  0  0  0  0  0  0  0
    4.7296   -5.8381    0.0281 H   0  0  0  0  0  0  0  0  0  0  0  0
    5.4589   -7.9385    0.2424 H   0  0  0  0  0  0  0  0  0  0  0  0
    7.1720   -9.0821   -2.5913 H   0  0  0  0  0  0  0  0  0  0  0  0
    8.0052   -9.0854   -4.9331 H   0  0  0  0  0  0  0  0  0  0  0  0
    6.2906   -5.2134   -5.5499 H   0  0  0  0  0  0  0  0  0  0  0  0
    2.9462   -4.3466    0.0267 H   0  0  0  0  0  0  0  0  0  0  0  0
    1.9813   -2.1767    0.6211 H   0  0  0  0  0  0  0  0  0  0  0  0
  1  2  1  0  0  0  0
  1 21  1  0  0  0  0
  1 22  1  0  0  0  0
  1 23  1  0  0  0  0
  2  3  1  0  0  0  0
  3  4  1  0  0  0  0
  3 20  2  0  0  0  0
  4  5  2  0  0  0  0
  4 24  1  0  0  0  0
  5  6  1  0  0  0  0
  5 25  1  0  0  0  0
  6  7  1  0  0  0  0
  6 19  2  0  0  0  0
  7  8  1  0  0  0  0
  7 18  2  0  0  0  0
  8  9  2  0  0  0  0
  8 26  1  0  0  0  0
  9 10  1  0  0  0  0
  9 11  1  0  0  0  0
 10 27  1  0  0  0  0
 11 12  1  0  0  0  0
 11 17  2  0  0  0  0
 12 13  2  0  0  0  0
 12 28  1  0  0  0  0
 13 14  1  0  0  0  0
 13 29  1  0  0  0  0
 14 15  1  0  0  0  0
 14 16  2  0  0  0  0
 16 17  1  0  0  0  0
 16 30  1  0  0  0  0
 17 18  1  0  0  0  0
 19 20  1  0  0  0  0
 19 31  1  0  0  0  0
 20 32  1  0  0  0  0
M  END
>  <Energy>
43.0053

$$$$

 OpenBabel04232614443D

 28 29  0  0  0  0  0  0  0  0999 V2000
    6.7661   -1.1126   -2.1629 O   0  0  0  0  0  0  0  0  0  0  0  0
    6.0729   -1.8761   -1.4761 N   0  3  0  0  0  0  0  0  0  0  0  0
    6.4927   -2.8321   -0.8104 O   0  5  0  0  0  0  0  0  0  0  0  0
    4.6381   -1.6825   -1.5319 C   0  0  0  0  0  0  0  0  0  0  0  0
    4.0155   -1.8229   -2.7792 C   0  0  0  0  0  0  0  0  0  0  0  0
    2.6373   -1.6689   -2.8529 C   0  0  0  0  0  0  0  0  0  0  0  0
    1.8375   -1.8184   -4.3671 Cl  0  0  0  0  0  0  0  0  0  0  0  0
    1.8958   -1.3977   -1.7033 C   0  0  0  0  0  0  0  0  0  0  0  0
    2.5360   -1.2521   -0.4651 C   0  0  0  0  0  0  0  0  0  0  0  0
    3.9271   -1.3656   -0.3659 C   0  0  0  0  0  0  0  0  0  0  0  0
    4.6386   -1.1704    0.7860 O   0  0  0  0  0  0  0  0  0  0  0  0
    3.9543   -0.5568    1.8818 C   0  0  0  0  0  0  0  0  0  0  0  0
    4.9391   -0.0824    2.9244 C   0  0  0  0  0  0  0  0  0  0  0  0
    4.7390    1.1547    3.5597 C   0  0  0  0  0  0  0  0  0  0  0  0
    5.6114    1.5926    4.5577 C   0  0  0  0  0  0  0  0  0  0  0  0
    6.6871    0.7950    4.9396 C   0  0  0  0  0  0  0  0  0  0  0  0
    6.8921   -0.4386    4.3230 C   0  0  0  0  0  0  0  0  0  0  0  0
    6.0208   -0.8784    3.3244 C   0  0  0  0  0  0  0  0  0  0  0  0
    4.5960   -2.0456   -3.6711 H   0  0  0  0  0  0  0  0  0  0  0  0
    0.8142   -1.2918   -1.7620 H   0  0  0  0  0  0  0  0  0  0  0  0
    1.9129   -1.0487    0.4012 H   0  0  0  0  0  0  0  0  0  0  0  0
    3.2752   -1.2812    2.3471 H   0  0  0  0  0  0  0  0  0  0  0  0
    3.3842    0.3100    1.5245 H   0  0  0  0  0  0  0  0  0  0  0  0
    3.9019    1.7902    3.2795 H   0  0  0  0  0  0  0  0  0  0  0  0
    5.4489    2.5540    5.0376 H   0  0  0  0  0  0  0  0  0  0  0  0
    7.3657    1.1344    5.7182 H   0  0  0  0  0  0  0  0  0  0  0  0
    7.7309   -1.0616    4.6235 H   0  0  0  0  0  0  0  0  0  0  0  0
    6.1953   -1.8451    2.8550 H   0  0  0  0  0  0  0  0  0  0  0  0
  1  2  2  0  0  0  0
  2  3  1  0  0  0  0
  2  4  1  0  0  0  0
  4  5  1  0  0  0  0
  4 10  2  0  0  0  0
  5  6  2  0  0  0  0
  5 19  1  0  0  0  0
  6  7  1  0  0  0  0
  6  8  1  0  0  0  0
  8  9  2  0  0  0  0
  8 20  1  0  0  0  0
  9 10  1  0  0  0  0
  9 21  1  0  0  0  0
 10 11  1  0  0  0  0
 11 12  1  0  0  0  0
 12 13  1  0  0  0  0
 12 22  1  0  0  0  0
 12 23  1  0  0  0  0
 13 14  1  0  0  0  0
 13 18  2  0  0  0  0
 14 15  2  0  0  0  0
 14 24  1  0  0  0  0
 15 16  1  0  0  0  0
 15 25  1  0  0  0  0
 16 17  2  0  0  0  0
 16 26  1  0  0  0  0
 17 18  1  0  0  0  0
 17 27  1  0  0  0  0
 18 28  1  0  0  0  0
M  CHG  2   2   1   3  -1
M  END
>  <Energy>
70.8062

$$$$

 OpenBabel04232614443D

 37 39  0  0  1  0  0  0  0  0999 V2000
    0.9986    3.5951   -1.7382 C   0  0  0  0  0  0  0  0  0  0  0  0
    0.7628    2.1361   -1.4786 C   0  0  0  0  0  0  0  0  0  0  0  0
    1.7819    1.3449   -0.9469 C   0  0  0  0  0  0  0  0  0  0  0  0
    1.5660   -0.0103   -0.7325 C   0  0  0  0  0  0  0  0  0  0  0  0
    0.3266   -0.5789   -1.0365 C   0  0  0  0  0  0  0  0  0  0  0  0
   -0.7299    0.1888   -1.5541 C   0  0  0  0  0  0  0  0  0  0  0  0
   -2.0399   -0.3766   -1.6979 N   0  0  0  0  0  0  0  0  0  0  0  0
   -3.2336    0.4345   -1.8200 C   0  0  0  0  0  0  0  0  0  0  0  0
   -4.0707    0.3942   -0.5481 C   0  0  0  0  0  0  0  0  0  0  0  0
   -3.6887   -0.8198    0.3001 C   0  0  2  0  0  0  0  0  0  0  0  0
   -2.5720   -0.6602    1.3354 C   0  0  0  0  0  0  0  0  0  0  0  0
   -1.9923    0.5750    1.6695 C   0  0  0  0  0  0  0  0  0  0  0  0
   -0.9375    0.6525    2.5846 C   0  0  0  0  0  0  0  0  0  0  0  0
   -0.4503   -0.4996    3.1927 C   0  0  0  0  0  0  0  0  0  0  0  0
   -1.0226   -1.7316    2.8922 C   0  0  0  0  0  0  0  0  0  0  0  0
   -2.0755   -1.8100    1.9774 C   0  0  0  0  0  0  0  0  0  0  0  0
   -3.3918   -1.9104   -0.6075 O   0  0  0  0  0  0  0  0  0  0  0  0
   -2.2923   -1.7208   -1.4047 C   0  0  0  0  0  0  0  0  0  0  0  0
   -1.6342   -2.6780   -1.7971 O   0  0  0  0  0  0  0  0  0  0  0  0
   -0.4744    1.5477   -1.8022 C   0  0  0  0  0  0  0  0  0  0  0  0
    1.7103    4.0088   -1.0156 H   0  0  0  0  0  0  0  0  0  0  0  0
    0.0687    4.1645   -1.6360 H   0  0  0  0  0  0  0  0  0  0  0  0
    1.3941    3.7370   -2.7486 H   0  0  0  0  0  0  0  0  0  0  0  0
    2.7461    1.7779   -0.6910 H   0  0  0  0  0  0  0  0  0  0  0  0
    2.3497   -0.6303   -0.3066 H   0  0  0  0  0  0  0  0  0  0  0  0
    0.2058   -1.6341   -0.8052 H   0  0  0  0  0  0  0  0  0  0  0  0
   -3.8236   -0.0158   -2.6313 H   0  0  0  0  0  0  0  0  0  0  0  0
   -3.0547    1.4628   -2.1339 H   0  0  0  0  0  0  0  0  0  0  0  0
   -5.1208    0.3008   -0.8543 H   0  0  0  0  0  0  0  0  0  0  0  0
   -4.0168    1.3377    0.0016 H   0  0  0  0  0  0  0  0  0  0  0  0
   -4.5787   -1.1191    0.8688 H   0  0  0  0  0  0  0  0  0  0  0  0
   -2.3136    1.5026    1.2071 H   0  0  0  0  0  0  0  0  0  0  0  0
   -0.4842    1.6156    2.8071 H   0  0  0  0  0  0  0  0  0  0  0  0
    0.3781   -0.4379    3.8930 H   0  0  0  0  0  0  0  0  0  0  0  0
   -0.6402   -2.6362    3.3575 H   0  0  0  0  0  0  0  0  0  0  0  0
   -2.4920   -2.7887    1.7423 H   0  0  0  0  0  0  0  0  0  0  0  0
   -1.2251    2.1937   -2.2411 H   0  0  0  0  0  0  0  0  0  0  0  0
  1  2  1  0  0  0  0
  1 21  1  0  0  0  0
  1 22  1  0  0  0  0
  1 23  1  0  0  0  0
  2  3  1  0  0  0  0
  2 20  2  0  0  0  0
  3  4  2  0  0  0  0
  3 24  1  0  0  0  0
  4  5  1  0  0  0  0
  4 25  1  0  0  0  0
  5  6  2  0  0  0  0
  5 26  1  0  0  0  0
  6  7  1  0  0  0  0
  6 20  1  0  0  0  0
  7  8  1  0  0  0  0
  7 18  1  0  0  0  0
  8  9  1  0  0  0  0
  8 27  1  0  0  0  0
  8 28  1  0  0  0  0
  9 10  1  0  0  0  0
  9 29  1  0  0  0  0
  9 30  1  0  0  0  0
 10 11  1  0  0  0  0
 10 17  1  0  0  0  0
 10 31  1  1  0  0  0
 11 12  1  0  0  0  0
 11 16  2  0  0  0  0
 12 13  2  0  0  0  0
 12 32  1  0  0  0  0
 13 14  1  0  0  0  0
 13 33  1  0  0  0  0
 14 15  2  0  0  0  0
 14 34  1  0  0  0  0
 15 16  1  0  0  0  0
 15 35  1  0  0  0  0
 16 36  1  0  0  0  0
 17 18  1  0  0  0  0
 18 19  2  0  0  0  0
 20 37  1  0  0  0  0
M  END
>  <Energy>
19.3347

$$$$

 OpenBabel04232614443D

 27 29  0  0  0  0  0  0  0  0999 V2000
    1.8138    0.3976    1.2849 Cl  0  0  0  0  0  0  0  0  0  0  0  0
    0.1873    0.4384    0.7404 C   0  0  0  0  0  0  0  0  0  0  0  0
   -0.2121    1.2127   -0.2376 N   0  0  0  0  0  0  0  0  0  0  0  0
   -1.5720    1.0276   -0.4141 C   0  0  0  0  0  0  0  0  0  0  0  0
   -2.1719    0.1109    0.4308 C   0  0  0  0  0  0  0  0  0  0  0  0
   -3.5962   -0.3297    0.5290 C   0  0  0  0  0  0  0  0  0  0  0  0
   -4.4111    0.7730    0.1399 O   0  0  0  0  0  0  0  0  0  0  0  0
   -5.7772    0.5785    0.1569 C   0  0  0  0  0  0  0  0  0  0  0  0
   -6.4072   -0.3302    1.0206 C   0  0  0  0  0  0  0  0  0  0  0  0
   -7.7938   -0.4414    1.0345 C   0  0  0  0  0  0  0  0  0  0  0  0
   -8.5576    0.3556    0.1911 C   0  0  0  0  0  0  0  0  0  0  0  0
   -7.9386    1.2710   -0.6732 C   0  0  0  0  0  0  0  0  0  0  0  0
   -8.7090    2.0794   -1.5203 C   0  0  0  0  0  0  0  0  0  0  0  0
   -8.0883    2.9825   -2.3714 C   0  0  0  0  0  0  0  0  0  0  0  0
   -6.7103    3.0451   -2.3466 C   0  0  0  0  0  0  0  0  0  0  0  0
   -5.9355    2.2830   -1.5438 N   0  0  0  0  0  0  0  0  0  0  0  0
   -6.5298    1.4006   -0.7049 C   0  0  0  0  0  0  0  0  0  0  0  0
   -0.9767   -0.5548    1.4782 S   0  0  0  0  0  0  0  0  0  0  0  0
   -2.0904    1.6002   -1.1768 H   0  0  0  0  0  0  0  0  0  0  0  0
   -3.8039   -0.6150    1.5654 H   0  0  0  0  0  0  0  0  0  0  0  0
   -3.7676   -1.1814   -0.1401 H   0  0  0  0  0  0  0  0  0  0  0  0
   -5.8499   -0.9466    1.7165 H   0  0  0  0  0  0  0  0  0  0  0  0
   -8.2785   -1.1394    1.7130 H   0  0  0  0  0  0  0  0  0  0  0  0
   -9.6416    0.2642    0.2171 H   0  0  0  0  0  0  0  0  0  0  0  0
   -9.7940    2.0107   -1.5194 H   0  0  0  0  0  0  0  0  0  0  0  0
   -8.6638    3.6180   -3.0334 H   0  0  0  0  0  0  0  0  0  0  0  0
   -6.1700    3.7323   -2.9916 H   0  0  0  0  0  0  0  0  0  0  0  0
  1  2  1  0  0  0  0
  2  3  2  0  0  0  0
  2 18  1  0  0  0  0
  3  4  1  0  0  0  0
  4  5  2  0  0  0  0
  4 19  1  0  0  0  0
  5  6  1  0  0  0  0
  5 18  1  0  0  0  0
  6  7  1  0  0  0  0
  6 20  1  0  0  0  0
  6 21  1  0  0  0  0
  7  8  1  0  0  0  0
  8  9  1  0  0  0  0
  8 17  2  0  0  0  0
  9 10  2  0  0  0  0
  9 22  1  0  0  0  0
 10 11  1  0  0  0  0
 10 23  1  0  0  0  0
 11 12  2  0  0  0  0
 11 24  1  0  0  0  0
 12 13  1  0  0  0  0
 12 17  1  0  0  0  0
 13 14  2  0  0  0  0
 13 25  1  0  0  0  0
 14 15  1  0  0  0  0
 14 26  1  0  0  0  0
 15 16  2  0  0  0  0
 15 27  1  0  0  0  0
 16 17  1  0  0  0  0
M  END
>  <Energy>
68.0964

$$$$

 OpenBabel04232614443D

 40 42  0  0  0  0  0  0  0  0999 V2000
    0.8874   -4.5933    3.4192 C   0  0  0  0  0  0  0  0  0  0  0  0
    2.4080   -4.6067    3.4170 C   0  0  0  0  0  0  0  0  0  0  0  0
    2.9732   -3.3538    2.7498 C   0  0  0  0  0  0  0  0  0  0  0  0
    4.5022   -3.3597    2.7438 C   0  0  0  0  0  0  0  0  0  0  0  0
    5.0507   -2.0978    2.0810 C   0  0  0  0  0  0  0  0  0  0  0  0
    6.5637   -2.1190    2.0518 C   0  0  0  0  0  0  0  0  0  0  0  0
    7.2209   -1.6189    3.0570 N   0  0  0  0  0  0  0  0  0  0  0  0
    8.6351   -1.6344    3.0292 C   0  0  0  0  0  0  0  0  0  0  0  0
    9.3314   -1.0868    4.1091 C   0  0  0  0  0  0  0  0  0  0  0  0
   10.7319   -1.0672    4.1327 C   0  0  0  0  0  0  0  0  0  0  0  0
   11.2821   -0.4988    5.2500 O   0  0  0  0  0  0  0  0  0  0  0  0
   12.7024   -0.4555    5.3157 C   0  0  0  0  0  0  0  0  0  0  0  0
   11.4462   -1.6058    3.0592 C   0  0  0  0  0  0  0  0  0  0  0  0
   10.7720   -2.1600    1.9687 C   0  0  0  0  0  0  0  0  0  0  0  0
    9.3766   -2.1681    1.9634 C   0  0  0  0  0  0  0  0  0  0  0  0
    8.6292   -2.7076    0.9007 N   0  0  0  0  0  0  0  0  0  0  0  0
    9.0558   -3.2917   -0.2673 C   0  0  0  0  0  0  0  0  0  0  0  0
    7.9445   -3.6742   -0.9880 C   0  0  0  0  0  0  0  0  0  0  0  0
    6.8052   -3.3076   -0.2332 C   0  0  0  0  0  0  0  0  0  0  0  0
    7.2532   -2.7023    0.9256 C   0  0  0  0  0  0  0  0  0  0  0  0
    0.5000   -5.4985    3.8969 H   0  0  0  0  0  0  0  0  0  0  0  0
    0.4942   -4.5528    2.3983 H   0  0  0  0  0  0  0  0  0  0  0  0
    0.5039   -3.7278    3.9691 H   0  0  0  0  0  0  0  0  0  0  0  0
    2.7596   -5.5012    2.8899 H   0  0  0  0  0  0  0  0  0  0  0  0
    2.7691   -4.6748    4.4498 H   0  0  0  0  0  0  0  0  0  0  0  0
    2.6119   -2.4627    3.2776 H   0  0  0  0  0  0  0  0  0  0  0  0
    2.6035   -3.2899    1.7189 H   0  0  0  0  0  0  0  0  0  0  0  0
    4.8670   -4.2497    2.2164 H   0  0  0  0  0  0  0  0  0  0  0  0
    4.8786   -3.4294    3.7720 H   0  0  0  0  0  0  0  0  0  0  0  0
    4.7260   -1.2112    2.6387 H   0  0  0  0  0  0  0  0  0  0  0  0
    4.6608   -1.9965    1.0624 H   0  0  0  0  0  0  0  0  0  0  0  0
    8.7740   -0.6679    4.9431 H   0  0  0  0  0  0  0  0  0  0  0  0
   12.9813    0.0260    6.2578 H   0  0  0  0  0  0  0  0  0  0  0  0
   13.1174    0.1455    4.4995 H   0  0  0  0  0  0  0  0  0  0  0  0
   13.1278   -1.4647    5.3191 H   0  0  0  0  0  0  0  0  0  0  0  0
   12.5309   -1.6096    3.0402 H   0  0  0  0  0  0  0  0  0  0  0  0
   11.3539   -2.5703    1.1498 H   0  0  0  0  0  0  0  0  0  0  0  0
   10.1049   -3.3948   -0.5040 H   0  0  0  0  0  0  0  0  0  0  0  0
    7.9564   -4.1634   -1.9537 H   0  0  0  0  0  0  0  0  0  0  0  0
    5.7722   -3.4670   -0.5147 H   0  0  0  0  0  0  0  0  0  0  0  0
  1  2  1  0  0  0  0
  1 21  1  0  0  0  0
  1 22  1  0  0  0  0
  1 23  1  0  0  0  0
  2  3  1  0  0  0  0
  2 24  1  0  0  0  0
  2 25  1  0  0  0  0
  3  4  1  0  0  0  0
  3 26  1  0  0  0  0
  3 27  1  0  0  0  0
  4  5  1  0  0  0  0
  4 28  1  0  0  0  0
  4 29  1  0  0  0  0
  5  6  1  0  0  0  0
  5 30  1  0  0  0  0
  5 31  1  0  0  0  0
  6  7  2  0  0  0  0
  6 20  1  0  0  0  0
  7  8  1  0  0  0  0
  8  9  1  0  0  0  0
  8 15  2  0  0  0  0
  9 10  2  0  0  0  0
  9 32  1  0  0  0  0
 10 11  1  0  0  0  0
 10 13  1  0  0  0  0
 11 12  1  0  0  0  0
 12 33  1  0  0  0  0
 12 34  1  0  0  0  0
 12 35  1  0  0  0  0
 13 14  2  0  0  0  0
 13 36  1  0  0  0  0
 14 15  1  0  0  0  0
 14 37  1  0  0  0  0
 15 16  1  0  0  0  0
 16 17  1  0  0  0  0
 16 20  1  0  0  0  0
 17 18  2  0  0  0  0
 17 38  1  0  0  0  0
 18 19  1  0  0  0  0
 18 39  1  0  0  0  0
 19 20  2  0  0  0  0
 19 40  1  0  0  0  0
M  END
>  <Energy>
26.7352

$$$$

 OpenBabel04232614443D

 31 34  0  0  0  0  0  0  0  0999 V2000
    1.3957   -0.1069   -0.0507 C   0  0  0  0  0  0  0  0  0  0  0  0
    0.5670   -0.6986    0.8987 C   0  0  0  0  0  0  0  0  0  0  0  0
   -0.8141   -0.5184    0.8227 C   0  0  0  0  0  0  0  0  0  0  0  0
   -1.3888    0.2532   -0.2021 C   0  0  0  0  0  0  0  0  0  0  0  0
   -2.8343    0.4311   -0.2218 C   0  0  0  0  0  0  0  0  0  0  0  0
   -3.7266    0.0161    0.6462 N   0  0  0  0  0  0  0  0  0  0  0  0
   -4.9078    0.5039    0.1344 C   0  0  0  0  0  0  0  0  0  0  0  0
   -6.1765    0.2887    0.8232 C   0  0  0  0  0  0  0  0  0  0  0  0
   -6.2016   -0.5242    1.9684 C   0  0  0  0  0  0  0  0  0  0  0  0
   -7.3882   -0.7693    2.6680 C   0  0  0  0  0  0  0  0  0  0  0  0
   -8.5803   -0.1737    2.2236 C   0  0  0  0  0  0  0  0  0  0  0  0
   -9.9262   -0.2059    2.6775 C   0  0  0  0  0  0  0  0  0  0  0  0
  -10.6657    0.6102    1.8527 C   0  0  0  0  0  0  0  0  0  0  0  0
   -9.8211    1.1226    0.9025 N   0  0  0  0  0  0  0  0  0  0  0  0
   -8.5424    0.6486    1.0975 C   0  0  0  0  0  0  0  0  0  0  0  0
   -7.3652    0.8891    0.3714 C   0  0  0  0  0  0  0  0  0  0  0  0
   -4.7623    1.1812   -1.0183 N   0  0  0  0  0  0  0  0  0  0  0  0
   -3.3849    1.1329   -1.2559 O   0  0  0  0  0  0  0  0  0  0  0  0
   -0.5421    0.8375   -1.1539 C   0  0  0  0  0  0  0  0  0  0  0  0
    0.8430    0.6587   -1.0764 C   0  0  0  0  0  0  0  0  0  0  0  0
    2.4729   -0.2414    0.0100 H   0  0  0  0  0  0  0  0  0  0  0  0
    0.9930   -1.2957    1.7012 H   0  0  0  0  0  0  0  0  0  0  0  0
   -1.4497   -0.9835    1.5758 H   0  0  0  0  0  0  0  0  0  0  0  0
   -5.2832   -0.9819    2.3328 H   0  0  0  0  0  0  0  0  0  0  0  0
   -7.3817   -1.4065    3.5484 H   0  0  0  0  0  0  0  0  0  0  0  0
  -10.3069   -0.7611    3.5249 H   0  0  0  0  0  0  0  0  0  0  0  0
  -11.7155    0.8705    1.8622 H   0  0  0  0  0  0  0  0  0  0  0  0
  -10.0907    1.7633    0.1693 H   0  0  0  0  0  0  0  0  0  0  0  0
   -7.3746    1.5276   -0.5082 H   0  0  0  0  0  0  0  0  0  0  0  0
   -0.9465    1.4444   -1.9613 H   0  0  0  0  0  0  0  0  0  0  0  0
    1.4920    1.1215   -1.8159 H   0  0  0  0  0  0  0  0  0  0  0  0
  1  2  1  0  0  0  0
  1 20  2  0  0  0  0
  1 21  1  0  0  0  0
  2  3  2  0  0  0  0
  2 22  1  0  0  0  0
  3  4  1  0  0  0  0
  3 23  1  0  0  0  0
  4  5  1  0  0  0  0
  4 19  2  0  0  0  0
  5  6  2  0  0  0  0
  5 18  1  0  0  0  0
  6  7  1  0  0  0  0
  7  8  1  0  0  0  0
  7 17  2  0  0  0  0
  8  9  1  0  0  0  0
  8 16  2  0  0  0  0
  9 10  2  0  0  0  0
  9 24  1  0  0  0  0
 10 11  1  0  0  0  0
 10 25  1  0  0  0  0
 11 12  1  0  0  0  0
 11 15  2  0  0  0  0
 12 13  2  0  0  0  0
 12 26  1  0  0  0  0
 13 14  1  0  0  0  0
 13 27  1  0  0  0  0
 14 15  1  0  0  0  0
 14 28  1  0  0  0  0
 15 16  1  0  0  0  0
 16 29  1  0  0  0  0
 17 18  1  0  0  0  0
 19 20  1  0  0  0  0
 19 30  1  0  0  0  0
 20 31  1  0  0  0  0
M  END
>  <Energy>
59.824

$$$$

 OpenBabel04232614443D

 31 33  0  0  0  0  0  0  0  0999 V2000
    1.9097    1.2393    0.8794 C   0  0  0  0  0  0  0  0  0  0  0  0
    2.4020    0.0037    0.1404 C   0  0  0  0  0  0  0  0  0  0  0  0
    2.7061   -1.1432    1.0431 C   0  0  0  0  0  0  0  0  0  0  0  0
    3.1167   -0.8194    2.3006 O   0  0  0  0  0  0  0  0  0  0  0  0
    3.2826   -1.9622    3.0490 N   0  0  0  0  0  0  0  0  0  0  0  0
    3.0455   -2.9823    2.2144 C   0  0  0  0  0  0  0  0  0  0  0  0
    3.1928   -4.3958    2.6678 C   0  0  0  0  0  0  0  0  0  0  0  0
    3.1769   -4.8288    3.9821 C   0  0  0  0  0  0  0  0  0  0  0  0
    3.3395   -6.2353    3.9496 C   0  0  0  0  0  0  0  0  0  0  0  0
    3.4877   -6.5781    2.6253 C   0  0  0  0  0  0  0  0  0  0  0  0
    3.7812   -8.1495    1.9968 Cl  0  0  0  0  0  0  0  0  0  0  0  0
    3.3631   -5.4721    1.8428 O   0  0  0  0  0  0  0  0  0  0  0  0
    2.6547   -2.5202    0.9227 C   0  0  0  0  0  0  0  0  0  0  0  0
    2.1410   -3.2330   -0.2398 C   0  0  0  0  0  0  0  0  0  0  0  0
    1.2098   -4.2688   -0.0617 C   0  0  0  0  0  0  0  0  0  0  0  0
    0.6784   -4.9516   -1.1595 C   0  0  0  0  0  0  0  0  0  0  0  0
    1.0539   -4.5895   -2.4481 C   0  0  0  0  0  0  0  0  0  0  0  0
    1.9741   -3.5586   -2.6418 C   0  0  0  0  0  0  0  0  0  0  0  0
    2.5222   -2.8920   -1.5426 C   0  0  0  0  0  0  0  0  0  0  0  0
    1.6386    2.0236    0.1647 H   0  0  0  0  0  0  0  0  0  0  0  0
    2.6823    1.6442    1.5412 H   0  0  0  0  0  0  0  0  0  0  0  0
    1.0276    1.0120    1.4876 H   0  0  0  0  0  0  0  0  0  0  0  0
    3.3048    0.2575   -0.4278 H   0  0  0  0  0  0  0  0  0  0  0  0
    1.6352   -0.2894   -0.5823 H   0  0  0  0  0  0  0  0  0  0  0  0
    3.0313   -4.2019    4.8514 H   0  0  0  0  0  0  0  0  0  0  0  0
    3.3592   -6.9153    4.7895 H   0  0  0  0  0  0  0  0  0  0  0  0
    0.8803   -4.5598    0.9326 H   0  0  0  0  0  0  0  0  0  0  0  0
   -0.0301   -5.7598   -1.0024 H   0  0  0  0  0  0  0  0  0  0  0  0
    0.6332   -5.1131   -3.3045 H   0  0  0  0  0  0  0  0  0  0  0  0
    2.2628   -3.2761   -3.6500 H   0  0  0  0  0  0  0  0  0  0  0  0
    3.2474   -2.1016   -1.7219 H   0  0  0  0  0  0  0  0  0  0  0  0
  1  2  1  0  0  0  0
  1 20  1  0  0  0  0
  1 21  1  0  0  0  0
  1 22  1  0  0  0  0
  2  3  1  0  0  0  0
  2 23  1  0  0  0  0
  2 24  1  0  0  0  0
  3  4  1  0  0  0  0
  3 13  2  0  0  0  0
  4  5  1  0  0  0  0
  5  6  2  0  0  0  0
  6  7  1  0  0  0  0
  6 13  1  0  0  0  0
  7  8  2  0  0  0  0
  7 12  1  0  0  0  0
  8  9  1  0  0  0  0
  8 25  1  0  0  0  0
  9 10  2  0  0  0  0
  9 26  1  0  0  0  0
 10 11  1  0  0  0  0
 10 12  1  0  0  0  0
 13 14  1  0  0  0  0
 14 15  1  0  0  0  0
 14 19  2  0  0  0  0
 15 16  2  0  0  0  0
 15 27  1  0  0  0  0
 16 17  1  0  0  0  0
 16 28  1  0  0  0  0
 17 18  2  0  0  0  0
 17 29  1  0  0  0  0
 18 19  1  0  0  0  0
 18 30  1  0  0  0  0
 19 31  1  0  0  0  0
M  END
>  <Energy>
34.8696

$$$$

 OpenBabel04232614443D

 36 38  0  0  0  0  0  0  0  0999 V2000
    2.4591    0.0152    0.3403 C   0  0  0  0  0  0  0  0  0  0  0  0
    0.9589    0.0472    0.3254 C   0  0  0  0  0  0  0  0  0  0  0  0
    0.2729    1.2344    0.0416 C   0  0  0  0  0  0  0  0  0  0  0  0
   -1.1218    1.2546    0.0095 C   0  0  0  0  0  0  0  0  0  0  0  0
   -1.8397    0.0842    0.2591 C   0  0  0  0  0  0  0  0  0  0  0  0
   -3.3137    0.0837    0.2047 C   0  0  0  0  0  0  0  0  0  0  0  0
   -3.9900    1.1552   -0.0632 N   0  0  0  0  0  0  0  0  0  0  0  0
   -5.3933    1.0987   -0.0802 C   0  0  0  0  0  0  0  0  0  0  0  0
   -6.0795    1.9576   -0.9434 C   0  0  0  0  0  0  0  0  0  0  0  0
   -7.4836    1.9919   -0.9753 C   0  0  0  0  0  0  0  0  0  0  0  0
   -8.2407    1.1644   -0.1397 C   0  0  0  0  0  0  0  0  0  0  0  0
   -9.7102    1.1409   -0.0914 C   0  0  0  0  0  0  0  0  0  0  0  0
  -10.5654    2.0369   -0.9384 C   0  0  0  0  0  0  0  0  0  0  0  0
  -10.3020    0.2844    0.7574 C   0  0  0  0  0  0  0  0  0  0  0  0
   -9.5683   -0.6289    1.6433 C   0  0  0  0  0  0  0  0  0  0  0  0
  -10.1685   -1.4011    2.3843 O   0  0  0  0  0  0  0  0  0  0  0  0
   -8.1933   -0.5645    1.5975 O   0  0  0  0  0  0  0  0  0  0  0  0
   -7.5354    0.3152    0.7166 C   0  0  0  0  0  0  0  0  0  0  0  0
   -6.1411    0.2829    0.7655 C   0  0  0  0  0  0  0  0  0  0  0  0
   -1.1686   -1.1046    0.5559 C   0  0  0  0  0  0  0  0  0  0  0  0
    0.2283   -1.1204    0.5879 C   0  0  0  0  0  0  0  0  0  0  0  0
    2.8826    1.0031    0.1304 H   0  0  0  0  0  0  0  0  0  0  0  0
    2.8282   -0.6761   -0.4241 H   0  0  0  0  0  0  0  0  0  0  0  0
    2.8224   -0.3033    1.3223 H   0  0  0  0  0  0  0  0  0  0  0  0
    0.8178    2.1533   -0.1614 H   0  0  0  0  0  0  0  0  0  0  0  0
   -1.6432    2.1822   -0.2146 H   0  0  0  0  0  0  0  0  0  0  0  0
   -3.8007   -0.8878    0.4037 H   0  0  0  0  0  0  0  0  0  0  0  0
   -5.5130    2.6204   -1.5938 H   0  0  0  0  0  0  0  0  0  0  0  0
   -7.9470    2.6894   -1.6657 H   0  0  0  0  0  0  0  0  0  0  0  0
  -10.0075    2.6921   -1.6086 H   0  0  0  0  0  0  0  0  0  0  0  0
  -11.1792    2.6836   -0.3011 H   0  0  0  0  0  0  0  0  0  0  0  0
  -11.2354    1.4380   -1.5658 H   0  0  0  0  0  0  0  0  0  0  0  0
  -11.3813    0.2201    0.8417 H   0  0  0  0  0  0  0  0  0  0  0  0
   -5.6553   -0.3722    1.4803 H   0  0  0  0  0  0  0  0  0  0  0  0
   -1.7161   -2.0213    0.7594 H   0  0  0  0  0  0  0  0  0  0  0  0
    0.7471   -2.0498    0.8139 H   0  0  0  0  0  0  0  0  0  0  0  0
  1  2  1  0  0  0  0
  1 22  1  0  0  0  0
  1 23  1  0  0  0  0
  1 24  1  0  0  0  0
  2  3  1  0  0  0  0
  2 21  2  0  0  0  0
  3  4  2  0  0  0  0
  3 25  1  0  0  0  0
  4  5  1  0  0  0  0
  4 26  1  0  0  0  0
  5  6  1  0  0  0  0
  5 20  2  0  0  0  0
  6  7  2  0  0  0  0
  6 27  1  0  0  0  0
  7  8  1  0  0  0  0
  8  9  1  0  0  0  0
  8 19  2  0  0  0  0
  9 10  2  0  0  0  0
  9 28  1  0  0  0  0
 10 11  1  0  0  0  0
 10 29  1  0  0  0  0
 11 12  1  0  0  0  0
 11 18  2  0  0  0  0
 12 13  1  0  0  0  0
 12 14  2  0  0  0  0
 13 30  1  0  0  0  0
 13 31  1  0  0  0  0
 13 32  1  0  0  0  0
 14 15  1  0  0  0  0
 14 33  1  0  0  0  0
 15 16  2  0  0  0  0
 15 17  1  0  0  0  0
 17 18  1  0  0  0  0
 18 19  1  0  0  0  0
 19 34  1  0  0  0  0
 20 21  1  0  0  0  0
 20 35  1  0  0  0  0
 21 36  1  0  0  0  0
M  END
>  <Energy>
62.4157

$$$$

 OpenBabel04232614443D

 34 36  0  0  0  0  0  0  0  0999 V2000
   -1.6640   -2.3681    0.8768 C   0  0  0  0  0  0  0  0  0  0  0  0
   -1.0623   -1.1160    0.2967 C   0  0  0  0  0  0  0  0  0  0  0  0
   -1.8977    0.0067    0.1346 C   0  0  0  0  0  0  0  0  0  0  0  0
   -1.4096    1.1963   -0.4001 C   0  0  0  0  0  0  0  0  0  0  0  0
   -0.0827    1.2720   -0.8002 C   0  0  0  0  0  0  0  0  0  0  0  0
    0.7448    0.1547   -0.6813 C   0  0  0  0  0  0  0  0  0  0  0  0
    0.2888   -1.0480   -0.1165 C   0  0  0  0  0  0  0  0  0  0  0  0
    1.1639   -2.2429   -0.0532 C   0  0  0  0  0  0  0  0  0  0  0  0
    2.4739   -2.3326    0.2421 C   0  0  0  0  0  0  0  0  0  0  0  0
    3.3673   -1.2327    0.5817 C   0  0  0  0  0  0  0  0  0  0  0  0
    3.4562   -0.8909    1.8713 N   0  0  0  0  0  0  0  0  0  0  0  0
    4.1513    0.2287    2.0921 C   0  0  0  0  0  0  0  0  0  0  0  0
    4.2118    0.5636    3.4092 O   0  0  0  0  0  0  0  0  0  0  0  0
    4.7427    1.0260    1.1188 C   0  0  0  0  0  0  0  0  0  0  0  0
    5.3948    2.2538    1.3599 C   0  0  0  0  0  0  0  0  0  0  0  0
    5.9102    2.9926    0.2964 C   0  0  0  0  0  0  0  0  0  0  0  0
    5.7957    2.4966   -0.9974 C   0  0  0  0  0  0  0  0  0  0  0  0
    5.1641    1.2683   -1.2193 C   0  0  0  0  0  0  0  0  0  0  0  0
    4.6217    0.5257   -0.1775 C   0  0  0  0  0  0  0  0  0  0  0  0
    3.9678   -0.6108   -0.4493 N   0  0  0  0  0  0  0  0  0  0  0  0
   -2.6363   -2.1660    1.3389 H   0  0  0  0  0  0  0  0  0  0  0  0
   -1.0213   -2.7825    1.6599 H   0  0  0  0  0  0  0  0  0  0  0  0
   -1.8139   -3.1135    0.0895 H   0  0  0  0  0  0  0  0  0  0  0  0
   -2.9457   -0.0434    0.4255 H   0  0  0  0  0  0  0  0  0  0  0  0
   -2.0643    2.0542   -0.5148 H   0  0  0  0  0  0  0  0  0  0  0  0
    0.3084    2.1916   -1.2263 H   0  0  0  0  0  0  0  0  0  0  0  0
    1.7541    0.2427   -1.0678 H   0  0  0  0  0  0  0  0  0  0  0  0
    0.6509   -3.1781   -0.2747 H   0  0  0  0  0  0  0  0  0  0  0  0
    2.9600   -3.3014    0.2450 H   0  0  0  0  0  0  0  0  0  0  0  0
    3.6960   -0.1684    3.7954 H   0  0  0  0  0  0  0  0  0  0  0  0
    5.4749    2.6405    2.3747 H   0  0  0  0  0  0  0  0  0  0  0  0
    6.3884    3.9525    0.4759 H   0  0  0  0  0  0  0  0  0  0  0  0
    6.1858    3.0635   -1.8379 H   0  0  0  0  0  0  0  0  0  0  0  0
    5.0724    0.8931   -2.2363 H   0  0  0  0  0  0  0  0  0  0  0  0
  1  2  1  0  0  0  0
  1 21  1  0  0  0  0
  1 22  1  0  0  0  0
  1 23  1  0  0  0  0
  2  3  1  0  0  0  0
  2  7  2  0  0  0  0
  3  4  2  0  0  0  0
  3 24  1  0  0  0  0
  4  5  1  0  0  0  0
  4 25  1  0  0  0  0
  5  6  2  0  0  0  0
  5 26  1  0  0  0  0
  6  7  1  0  0  0  0
  6 27  1  0  0  0  0
  7  8  1  0  0  0  0
  8  9  2  0  0  0  0
  8 28  1  0  0  0  0
  9 10  1  0  0  0  0
  9 29  1  0  0  0  0
 10 11  1  0  0  0  0
 10 20  2  0  0  0  0
 11 12  2  0  0  0  0
 12 13  1  0  0  0  0
 12 14  1  0  0  0  0
 13 30  1  0  0  0  0
 14 15  1  0  0  0  0
 14 19  2  0  0  0  0
 15 16  2  0  0  0  0
 15 31  1  0  0  0  0
 16 17  1  0  0  0  0
 16 32  1  0  0  0  0
 17 18  2  0  0  0  0
 17 33  1  0  0  0  0
 18 19  1  0  0  0  0
 18 34  1  0  0  0  0
 19 20  1  0  0  0  0
M  END
>  <Energy>
0.228047

$$$$

 OpenBabel04232614443D

 31 33  0  0  0  0  0  0  0  0999 V2000
    1.0480    0.3123    0.0774 C   0  0  0  0  0  0  0  0  0  0  0  0
    2.5269    0.1860    0.0745 C   0  0  0  0  0  0  0  0  0  0  0  0
    3.3488   -0.9290    0.0334 C   0  0  0  0  0  0  0  0  0  0  0  0
    2.9639   -2.3319    0.0911 C   0  0  0  0  0  0  0  0  0  0  0  0
    3.7089   -3.2758   -0.6312 C   0  0  0  0  0  0  0  0  0  0  0  0
    3.3538   -4.6274   -0.6219 C   0  0  0  0  0  0  0  0  0  0  0  0
    2.2517   -5.0517    0.1152 C   0  0  0  0  0  0  0  0  0  0  0  0
    1.5174   -4.1290    0.8593 C   0  0  0  0  0  0  0  0  0  0  0  0
    1.8776   -2.7789    0.8552 C   0  0  0  0  0  0  0  0  0  0  0  0
    4.6369   -0.5373   -0.1996 N   0  0  0  0  0  0  0  0  0  0  0  0
    4.6567    0.7804   -0.2992 N   0  0  0  0  0  0  0  0  0  0  0  0
    3.4130    1.2538   -0.0407 N   0  0  0  0  0  0  0  0  0  0  0  0
    3.1912    2.6565    0.0426 C   0  0  0  0  0  0  0  0  0  0  0  0
    4.0872    3.5282   -0.5996 C   0  0  0  0  0  0  0  0  0  0  0  0
    3.8757    4.9103   -0.5640 C   0  0  0  0  0  0  0  0  0  0  0  0
    2.7904    5.4267    0.1386 C   0  0  0  0  0  0  0  0  0  0  0  0
    2.5267    7.1257    0.1815 Cl  0  0  0  0  0  0  0  0  0  0  0  0
    1.9193    4.5740    0.8136 C   0  0  0  0  0  0  0  0  0  0  0  0
    2.1169    3.1897    0.7659 C   0  0  0  0  0  0  0  0  0  0  0  0
    0.5719   -0.5827   -0.3355 H   0  0  0  0  0  0  0  0  0  0  0  0
    0.7147    1.1443   -0.5496 H   0  0  0  0  0  0  0  0  0  0  0  0
    0.6708    0.4529    1.0945 H   0  0  0  0  0  0  0  0  0  0  0  0
    4.5719   -2.9622   -1.2160 H   0  0  0  0  0  0  0  0  0  0  0  0
    3.9385   -5.3443   -1.1922 H   0  0  0  0  0  0  0  0  0  0  0  0
    1.9706   -6.1020    0.1175 H   0  0  0  0  0  0  0  0  0  0  0  0
    0.6640   -4.4627    1.4427 H   0  0  0  0  0  0  0  0  0  0  0  0
    1.3016   -2.0896    1.4654 H   0  0  0  0  0  0  0  0  0  0  0  0
    4.9385    3.1462   -1.1617 H   0  0  0  0  0  0  0  0  0  0  0  0
    4.5590    5.5725   -1.0888 H   0  0  0  0  0  0  0  0  0  0  0  0
    1.0882    4.9808    1.3848 H   0  0  0  0  0  0  0  0  0  0  0  0
    1.4449    2.5647    1.3451 H   0  0  0  0  0  0  0  0  0  0  0  0
  1  2  1  0  0  0  0
  1 20  1  0  0  0  0
  1 21  1  0  0  0  0
  1 22  1  0  0  0  0
  2  3  2  0  0  0  0
  2 12  1  0  0  0  0
  3  4  1  0  0  0  0
  3 10  1  0  0  0  0
  4  5  1  0  0  0  0
  4  9  2  0  0  0  0
  5  6  2  0  0  0  0
  5 23  1  0  0  0  0
  6  7  1  0  0  0  0
  6 24  1  0  0  0  0
  7  8  2  0  0  0  0
  7 25  1  0  0  0  0
  8  9  1  0  0  0  0
  8 26  1  0  0  0  0
  9 27  1  0  0  0  0
 10 11  2  0  0  0  0
 11 12  1  0  0  0  0
 12 13  1  0  0  0  0
 13 14  1  0  0  0  0
 13 19  2  0  0  0  0
 14 15  2  0  0  0  0
 14 28  1  0  0  0  0
 15 16  1  0  0  0  0
 15 29  1  0  0  0  0
 16 17  1  0  0  0  0
 16 18  2  0  0  0  0
 18 19  1  0  0  0  0
 18 30  1  0  0  0  0
 19 31  1  0  0  0  0
M  END
>  <Energy>
65.9432

$$$$

 OpenBabel04232614443D

 32 34  0  0  0  0  0  0  0  0999 V2000
    2.5721    1.0835    1.0472 O   0  0  0  0  0  0  0  0  0  0  0  0
    2.1861    0.2432    0.2432 C   0  0  0  0  0  0  0  0  0  0  0  0
    1.0233    0.3221   -0.4976 N   0  0  0  0  0  0  0  0  0  0  0  0
    0.1795    1.3835   -0.3786 C   0  0  0  0  0  0  0  0  0  0  0  0
    0.4004    2.5485    0.1541 N   0  0  0  0  0  0  0  0  0  0  0  0
   -0.7699    3.2734    0.1711 C   0  0  0  0  0  0  0  0  0  0  0  0
   -1.8660    2.6386   -0.3731 C   0  0  0  0  0  0  0  0  0  0  0  0
   -1.3925    1.1101   -0.9998 S   0  0  0  0  0  0  0  0  0  0  0  0
    2.9087   -1.0097    0.0668 C   0  0  0  0  0  0  0  0  0  0  0  0
    4.0244   -1.4429    0.7587 C   0  0  0  0  0  0  0  0  0  0  0  0
    4.3613   -2.8126    0.4778 C   0  0  0  0  0  0  0  0  0  0  0  0
    3.5171   -3.3331   -0.4879 C   0  0  0  0  0  0  0  0  0  0  0  0
    2.4035   -2.1798   -1.0671 S   0  0  0  0  0  0  0  0  0  0  0  0
    3.4145   -4.7315   -1.0022 C   0  0  0  0  0  0  0  0  0  0  0  0
    4.7262   -5.4047   -1.3938 C   0  0  0  0  0  0  0  0  0  0  0  0
    6.0297   -4.6809   -1.0698 C   0  0  0  0  0  0  0  0  0  0  0  0
    6.2963   -4.5397    0.4254 C   0  0  0  0  0  0  0  0  0  0  0  0
    5.4143   -3.5767    1.2253 C   0  0  0  0  0  0  0  0  0  0  0  0
    0.7056   -0.4844   -1.0020 H   0  0  0  0  0  0  0  0  0  0  0  0
   -0.7641    4.2593    0.6169 H   0  0  0  0  0  0  0  0  0  0  0  0
   -2.8839    2.9928   -0.4347 H   0  0  0  0  0  0  0  0  0  0  0  0
    4.5189   -0.8292    1.5051 H   0  0  0  0  0  0  0  0  0  0  0  0
    2.7530   -4.7623   -1.8789 H   0  0  0  0  0  0  0  0  0  0  0  0
    2.9087   -5.3328   -0.2372 H   0  0  0  0  0  0  0  0  0  0  0  0
    4.7042   -5.5891   -2.4760 H   0  0  0  0  0  0  0  0  0  0  0  0
    4.7440   -6.4027   -0.9364 H   0  0  0  0  0  0  0  0  0  0  0  0
    6.0748   -3.7069   -1.5712 H   0  0  0  0  0  0  0  0  0  0  0  0
    6.8471   -5.2740   -1.5001 H   0  0  0  0  0  0  0  0  0  0  0  0
    7.3415   -4.2282    0.5522 H   0  0  0  0  0  0  0  0  0  0  0  0
    6.2403   -5.5316    0.8936 H   0  0  0  0  0  0  0  0  0  0  0  0
    6.0726   -2.8677    1.7462 H   0  0  0  0  0  0  0  0  0  0  0  0
    4.9114   -4.1411    2.0219 H   0  0  0  0  0  0  0  0  0  0  0  0
  1  2  2  0  0  0  0
  2  3  1  0  0  0  0
  2  9  1  0  0  0  0
  3  4  1  0  0  0  0
  3 19  1  0  0  0  0
  4  5  2  0  0  0  0
  4  8  1  0  0  0  0
  5  6  1  0  0  0  0
  6  7  2  0  0  0  0
  6 20  1  0  0  0  0
  7  8  1  0  0  0  0
  7 21  1  0  0  0  0
  9 10  2  0  0  0  0
  9 13  1  0  0  0  0
 10 11  1  0  0  0  0
 10 22  1  0  0  0  0
 11 12  2  0  0  0  0
 11 18  1  0  0  0  0
 12 13  1  0  0  0  0
 12 14  1  0  0  0  0
 14 15  1  0  0  0  0
 14 23  1  0  0  0  0
 14 24  1  0  0  0  0
 15 16  1  0  0  0  0
 15 25  1  0  0  0  0
 15 26  1  0  0  0  0
 16 17  1  0  0  0  0
 16 27  1  0  0  0  0
 16 28  1  0  0  0  0
 17 18  1  0  0  0  0
 17 29  1  0  0  0  0
 17 30  1  0  0  0  0
 18 31  1  0  0  0  0
 18 32  1  0  0  0  0
M  END
>  <Energy>
-7.86465

$$$$

 OpenBabel04232614443D

 35 37  0  0  0  0  0  0  0  0999 V2000
    2.4511    1.4474   -0.0494 C   0  0  0  0  0  0  0  0  0  0  0  0
    1.5439    0.3223   -0.0584 N   0  0  0  0  0  0  0  0  0  0  0  0
    1.9360   -0.9916   -0.0462 C   0  0  0  0  0  0  0  0  0  0  0  0
    0.8010   -1.7670   -0.0336 C   0  0  0  0  0  0  0  0  0  0  0  0
   -0.3182   -0.8944   -0.0337 C   0  0  0  0  0  0  0  0  0  0  0  0
   -1.7100   -1.1043   -0.0091 C   0  0  0  0  0  0  0  0  0  0  0  0
   -2.5886   -0.0121   -0.0107 C   0  0  0  0  0  0  0  0  0  0  0  0
   -3.9900   -0.1904    0.0164 N   0  0  0  0  0  0  0  0  0  0  0  0
   -4.6149   -1.3009    0.5584 C   0  0  0  0  0  0  0  0  0  0  0  0
   -4.0620   -2.1151    1.2914 O   0  0  0  0  0  0  0  0  0  0  0  0
   -5.9315   -1.3909    0.1327 N   0  0  0  0  0  0  0  0  0  0  0  0
   -6.7865   -2.4417    0.5345 C   0  0  0  0  0  0  0  0  0  0  0  0
   -6.7192   -3.0052    1.8123 C   0  0  0  0  0  0  0  0  0  0  0  0
   -7.5133   -4.1017    2.1461 C   0  0  0  0  0  0  0  0  0  0  0  0
   -8.3865   -4.6391    1.2036 C   0  0  0  0  0  0  0  0  0  0  0  0
   -8.4899   -4.0563   -0.0591 C   0  0  0  0  0  0  0  0  0  0  0  0
   -7.7069   -2.9460   -0.3881 C   0  0  0  0  0  0  0  0  0  0  0  0
   -2.0775    1.2848   -0.0829 C   0  0  0  0  0  0  0  0  0  0  0  0
   -0.6944    1.5217   -0.0987 C   0  0  0  0  0  0  0  0  0  0  0  0
    0.1670    0.4131   -0.0676 C   0  0  0  0  0  0  0  0  0  0  0  0
    3.4823    1.0859   -0.0270 H   0  0  0  0  0  0  0  0  0  0  0  0
    2.2503    2.0448    0.8436 H   0  0  0  0  0  0  0  0  0  0  0  0
    2.2830    2.0336   -0.9560 H   0  0  0  0  0  0  0  0  0  0  0  0
    2.9825   -1.2720   -0.0412 H   0  0  0  0  0  0  0  0  0  0  0  0
    0.7730   -2.8500   -0.0140 H   0  0  0  0  0  0  0  0  0  0  0  0
   -2.0769   -2.1260    0.0044 H   0  0  0  0  0  0  0  0  0  0  0  0
   -4.5680    0.6331   -0.0660 H   0  0  0  0  0  0  0  0  0  0  0  0
   -6.0936   -1.0016   -0.7846 H   0  0  0  0  0  0  0  0  0  0  0  0
   -6.0403   -2.6066    2.5628 H   0  0  0  0  0  0  0  0  0  0  0  0
   -7.4321   -4.5438    3.1355 H   0  0  0  0  0  0  0  0  0  0  0  0
   -8.9799   -5.5144    1.4533 H   0  0  0  0  0  0  0  0  0  0  0  0
   -9.1664   -4.4818   -0.7957 H   0  0  0  0  0  0  0  0  0  0  0  0
   -7.7866   -2.5253   -1.3861 H   0  0  0  0  0  0  0  0  0  0  0  0
   -2.7467    2.1410   -0.0966 H   0  0  0  0  0  0  0  0  0  0  0  0
   -0.3105    2.5363   -0.1256 H   0  0  0  0  0  0  0  0  0  0  0  0
  1  2  1  0  0  0  0
  1 21  1  0  0  0  0
  1 22  1  0  0  0  0
  1 23  1  0  0  0  0
  2  3  1  0  0  0  0
  2 20  1  0  0  0  0
  3  4  2  0  0  0  0
  3 24  1  0  0  0  0
  4  5  1  0  0  0  0
  4 25  1  0  0  0  0
  5  6  1  0  0  0  0
  5 20  2  0  0  0  0
  6  7  2  0  0  0  0
  6 26  1  0  0  0  0
  7  8  1  0  0  0  0
  7 18  1  0  0  0  0
  8  9  1  0  0  0  0
  8 27  1  0  0  0  0
  9 10  2  0  0  0  0
  9 11  1  0  0  0  0
 11 12  1  0  0  0  0
 11 28  1  0  0  0  0
 12 13  1  0  0  0  0
 12 17  2  0  0  0  0
 13 14  2  0  0  0  0
 13 29  1  0  0  0  0
 14 15  1  0  0  0  0
 14 30  1  0  0  0  0
 15 16  2  0  0  0  0
 15 31  1  0  0  0  0
 16 17  1  0  0  0  0
 16 32  1  0  0  0  0
 17 33  1  0  0  0  0
 18 19  2  0  0  0  0
 18 34  1  0  0  0  0
 19 20  1  0  0  0  0
 19 35  1  0  0  0  0
M  END
>  <Energy>
-21.2147

$$$$

 OpenBabel04232614443D

 38 39  0  0  0  0  0  0  0  0999 V2000
    1.0678    0.5267   -0.6820 C   0  0  0  0  0  0  0  0  0  0  0  0
    2.3105    0.1115   -0.1198 O   0  0  0  0  0  0  0  0  0  0  0  0
    3.0044   -0.8349   -0.8280 C   0  0  0  0  0  0  0  0  0  0  0  0
    2.7862   -1.0962   -2.1850 C   0  0  0  0  0  0  0  0  0  0  0  0
    3.5478   -2.0524   -2.8581 C   0  0  0  0  0  0  0  0  0  0  0  0
    4.5536   -2.7615   -2.1950 C   0  0  0  0  0  0  0  0  0  0  0  0
    5.3469   -3.7407   -3.0006 C   0  0  0  0  0  0  0  0  0  0  0  0
    6.4859   -4.5115   -2.3882 C   0  0  0  0  0  0  0  0  0  0  0  0
    5.0587   -3.9176   -4.1863 O   0  0  0  0  0  0  0  0  0  0  0  0
    4.7667   -2.5108   -0.8336 C   0  0  0  0  0  0  0  0  0  0  0  0
    4.0068   -1.5419   -0.1397 C   0  0  0  0  0  0  0  0  0  0  0  0
    4.2768   -1.3261    1.3385 C   0  0  0  0  0  0  0  0  0  0  0  0
    3.5012   -2.2575    2.0958 O   0  0  0  0  0  0  0  0  0  0  0  0
    3.6378   -2.2285    3.4586 C   0  0  0  0  0  0  0  0  0  0  0  0
    4.5045   -1.4116    4.1853 C   0  0  0  0  0  0  0  0  0  0  0  0
    4.5425   -1.4881    5.5805 C   0  0  0  0  0  0  0  0  0  0  0  0
    3.7090   -2.3745    6.2650 C   0  0  0  0  0  0  0  0  0  0  0  0
    2.8292   -3.1954    5.5529 C   0  0  0  0  0  0  0  0  0  0  0  0
    1.9041   -4.1371    6.2660 C   0  0  0  0  0  0  0  0  0  0  0  0
    2.8097   -3.1202    4.1520 C   0  0  0  0  0  0  0  0  0  0  0  0
    0.5679    1.1773    0.0411 H   0  0  0  0  0  0  0  0  0  0  0  0
    0.4155   -0.3335   -0.8688 H   0  0  0  0  0  0  0  0  0  0  0  0
    1.2198    1.1104   -1.5964 H   0  0  0  0  0  0  0  0  0  0  0  0
    2.0355   -0.5644   -2.7606 H   0  0  0  0  0  0  0  0  0  0  0  0
    3.3484   -2.2341   -3.9137 H   0  0  0  0  0  0  0  0  0  0  0  0
    6.7843   -4.1571   -1.4041 H   0  0  0  0  0  0  0  0  0  0  0  0
    7.3588   -4.4129   -3.0409 H   0  0  0  0  0  0  0  0  0  0  0  0
    6.1993   -5.5638   -2.3154 H   0  0  0  0  0  0  0  0  0  0  0  0
    5.5189   -3.0543   -0.2718 H   0  0  0  0  0  0  0  0  0  0  0  0
    4.0439   -0.2943    1.6267 H   0  0  0  0  0  0  0  0  0  0  0  0
    5.3457   -1.4981    1.5227 H   0  0  0  0  0  0  0  0  0  0  0  0
    5.1648   -0.7008    3.6994 H   0  0  0  0  0  0  0  0  0  0  0  0
    5.2224   -0.8485    6.1399 H   0  0  0  0  0  0  0  0  0  0  0  0
    3.7477   -2.4147    7.3507 H   0  0  0  0  0  0  0  0  0  0  0  0
    2.0177   -4.0681    7.3530 H   0  0  0  0  0  0  0  0  0  0  0  0
    2.1104   -5.1706    5.9708 H   0  0  0  0  0  0  0  0  0  0  0  0
    0.8641   -3.8943    6.0243 H   0  0  0  0  0  0  0  0  0  0  0  0
    2.1331   -3.7582    3.5865 H   0  0  0  0  0  0  0  0  0  0  0  0
  1  2  1  0  0  0  0
  1 21  1  0  0  0  0
  1 22  1  0  0  0  0
  1 23  1  0  0  0  0
  2  3  1  0  0  0  0
  3  4  1  0  0  0  0
  3 11  2  0  0  0  0
  4  5  2  0  0  0  0
  4 24  1  0  0  0  0
  5  6  1  0  0  0  0
  5 25  1  0  0  0  0
  6  7  1  0  0  0  0
  6 10  2  0  0  0  0
  7  8  1  0  0  0  0
  7  9  2  0  0  0  0
  8 26  1  0  0  0  0
  8 27  1  0  0  0  0
  8 28  1  0  0  0  0
 10 11  1  0  0  0  0
 10 29  1  0  0  0  0
 11 12  1  0  0  0  0
 12 13  1  0  0  0  0
 12 30  1  0  0  0  0
 12 31  1  0  0  0  0
 13 14  1  0  0  0  0
 14 15  1  0  0  0  0
 14 20  2  0  0  0  0
 15 16  2  0  0  0  0
 15 32  1  0  0  0  0
 16 17  1  0  0  0  0
 16 33  1  0  0  0  0
 17 18  2  0  0  0  0
 17 34  1  0  0  0  0
 18 19  1  0  0  0  0
 18 20  1  0  0  0  0
 19 35  1  0  0  0  0
 19 36  1  0  0  0  0
 19 37  1  0  0  0  0
 20 38  1  0  0  0  0
M  END
>  <Energy>
70.5324

$$$$

 OpenBabel04232614443D

 38 39  0  0  0  0  0  0  0  0999 V2000
    1.0302    4.5828    2.2205 C   0  0  0  0  0  0  0  0  0  0  0  0
    2.5509    4.5811    2.2312 C   0  0  0  0  0  0  0  0  0  0  0  0
    3.1076    3.1602    2.3288 C   0  0  0  0  0  0  0  0  0  0  0  0
    4.6379    3.1577    2.3369 C   0  0  0  0  0  0  0  0  0  0  0  0
    5.1925    1.7320    2.4477 C   0  0  0  0  0  0  0  0  0  0  0  0
    6.7174    1.6843    2.4052 C   0  0  0  0  0  0  0  0  0  0  0  0
    7.3276    2.3829    3.5032 N   0  0  0  0  0  0  0  0  0  0  0  0
    7.6085    1.8421    4.7258 C   0  0  0  0  0  0  0  0  0  0  0  0
    7.3873    0.6718    5.0140 O   0  0  0  0  0  0  0  0  0  0  0  0
    8.2422    2.6678    5.6177 N   0  0  0  0  0  0  0  0  0  0  0  0
    8.3712    4.0082    5.4340 C   0  0  0  0  0  0  0  0  0  0  0  0
    7.7705    4.7136    4.5037 N   0  0  0  0  0  0  0  0  0  0  0  0
    8.1445    6.0308    4.6033 C   0  0  0  0  0  0  0  0  0  0  0  0
    7.6680    7.0705    3.7797 C   0  0  0  0  0  0  0  0  0  0  0  0
    8.1499    8.3663    3.9676 C   0  0  0  0  0  0  0  0  0  0  0  0
    9.1006    8.6243    4.9499 C   0  0  0  0  0  0  0  0  0  0  0  0
    9.5835    7.6066    5.7829 C   0  0  0  0  0  0  0  0  0  0  0  0
    9.0782    6.3087    5.5992 C   0  0  0  0  0  0  0  0  0  0  0  0
    9.4192    4.8505    6.4691 S   0  0  0  0  0  0  0  0  0  0  0  0
    0.6519    5.6073    2.1492 H   0  0  0  0  0  0  0  0  0  0  0  0
    0.6311    4.1364    3.1369 H   0  0  0  0  0  0  0  0  0  0  0  0
    0.6437    4.0178    1.3663 H   0  0  0  0  0  0  0  0  0  0  0  0
    2.9051    5.1802    3.0783 H   0  0  0  0  0  0  0  0  0  0  0  0
    2.9174    5.0630    1.3174 H   0  0  0  0  0  0  0  0  0  0  0  0
    2.7437    2.5652    1.4824 H   0  0  0  0  0  0  0  0  0  0  0  0
    2.7354    2.6832    3.2437 H   0  0  0  0  0  0  0  0  0  0  0  0
    4.9933    3.7633    3.1790 H   0  0  0  0  0  0  0  0  0  0  0  0
    5.0107    3.6296    1.4196 H   0  0  0  0  0  0  0  0  0  0  0  0
    4.8084    1.1283    1.6168 H   0  0  0  0  0  0  0  0  0  0  0  0
    4.8333    1.2720    3.3758 H   0  0  0  0  0  0  0  0  0  0  0  0
    7.0906    2.1556    1.4893 H   0  0  0  0  0  0  0  0  0  0  0  0
    7.0638    0.6474    2.4233 H   0  0  0  0  0  0  0  0  0  0  0  0
    7.5063    3.3780    3.3914 H   0  0  0  0  0  0  0  0  0  0  0  0
    8.6253    2.2382    6.4428 H   0  0  0  0  0  0  0  0  0  0  0  0
    6.9301    6.8550    3.0124 H   0  0  0  0  0  0  0  0  0  0  0  0
    7.7770    9.1713    3.3381 H   0  0  0  0  0  0  0  0  0  0  0  0
    9.4720    9.6395    5.0791 H   0  0  0  0  0  0  0  0  0  0  0  0
   10.3235    7.8156    6.5469 H   0  0  0  0  0  0  0  0  0  0  0  0
  1  2  1  0  0  0  0
  1 20  1  0  0  0  0
  1 21  1  0  0  0  0
  1 22  1  0  0  0  0
  2  3  1  0  0  0  0
  2 23  1  0  0  0  0
  2 24  1  0  0  0  0
  3  4  1  0  0  0  0
  3 25  1  0  0  0  0
  3 26  1  0  0  0  0
  4  5  1  0  0  0  0
  4 27  1  0  0  0  0
  4 28  1  0  0  0  0
  5  6  1  0  0  0  0
  5 29  1  0  0  0  0
  5 30  1  0  0  0  0
  6  7  1  0  0  0  0
  6 31  1  0  0  0  0
  6 32  1  0  0  0  0
  7  8  1  0  0  0  0
  7 33  1  0  0  0  0
  8  9  2  0  0  0  0
  8 10  1  0  0  0  0
 10 11  1  0  0  0  0
 10 34  1  0  0  0  0
 11 12  2  0  0  0  0
 11 19  1  0  0  0  0
 12 13  1  0  0  0  0
 13 14  1  0  0  0  0
 13 18  2  0  0  0  0
 14 15  2  0  0  0  0
 14 35  1  0  0  0  0
 15 16  1  0  0  0  0
 15 36  1  0  0  0  0
 16 17  2  0  0  0  0
 16 37  1  0  0  0  0
 17 18  1  0  0  0  0
 17 38  1  0  0  0  0
 18 19  1  0  0  0  0
M  END
>  <Energy>
-86.8978

$$$$

 OpenBabel04232614443D

 34 36  0  0  0  0  0  0  0  0999 V2000
    1.3791   -0.3316    0.6721 C   0  0  0  0  0  0  0  0  0  0  0  0
    2.4465    0.0468   -0.1878 O   0  0  0  0  0  0  0  0  0  0  0  0
    3.0715    1.2349    0.0834 C   0  0  0  0  0  0  0  0  0  0  0  0
    2.7214    2.1286    1.0979 C   0  0  0  0  0  0  0  0  0  0  0  0
    3.4341    3.3187    1.2913 C   0  0  0  0  0  0  0  0  0  0  0  0
    4.5094    3.5540    0.4391 C   0  0  0  0  0  0  0  0  0  0  0  0
    5.3065    4.6508    0.4750 O   0  0  0  0  0  0  0  0  0  0  0  0
    6.2337    4.5086   -0.5116 C   0  0  0  0  0  0  0  0  0  0  0  0
    7.2051    5.6172   -0.6429 C   0  0  0  0  0  0  0  0  0  0  0  0
    6.0669    3.2985   -1.1718 C   0  0  0  0  0  0  0  0  0  0  0  0
    6.9223    2.8365   -2.2580 C   0  0  0  0  0  0  0  0  0  0  0  0
    7.4972    3.6176   -3.0128 O   0  0  0  0  0  0  0  0  0  0  0  0
    7.1290    1.3778   -2.4642 C   0  0  0  0  0  0  0  0  0  0  0  0
    7.2517    0.4935   -1.3834 C   0  0  0  0  0  0  0  0  0  0  0  0
    7.4266   -0.8726   -1.6144 C   0  0  0  0  0  0  0  0  0  0  0  0
    7.5107   -1.3539   -2.9201 C   0  0  0  0  0  0  0  0  0  0  0  0
    7.4264   -0.4734   -3.9988 C   0  0  0  0  0  0  0  0  0  0  0  0
    7.2401    0.8917   -3.7725 C   0  0  0  0  0  0  0  0  0  0  0  0
    4.9113    2.6924   -0.5731 C   0  0  0  0  0  0  0  0  0  0  0  0
    4.1535    1.5183   -0.7665 C   0  0  0  0  0  0  0  0  0  0  0  0
    1.0163   -1.3102    0.3436 H   0  0  0  0  0  0  0  0  0  0  0  0
    0.5467    0.3756    0.5979 H   0  0  0  0  0  0  0  0  0  0  0  0
    1.7214   -0.4344    1.7073 H   0  0  0  0  0  0  0  0  0  0  0  0
    1.8854    1.9342    1.7623 H   0  0  0  0  0  0  0  0  0  0  0  0
    3.1685    4.0266    2.0672 H   0  0  0  0  0  0  0  0  0  0  0  0
    6.9438    6.4510    0.0172 H   0  0  0  0  0  0  0  0  0  0  0  0
    7.2253    5.9982   -1.6680 H   0  0  0  0  0  0  0  0  0  0  0  0
    8.2101    5.2772   -0.3753 H   0  0  0  0  0  0  0  0  0  0  0  0
    7.2073    0.8504   -0.3572 H   0  0  0  0  0  0  0  0  0  0  0  0
    7.4988   -1.5605   -0.7754 H   0  0  0  0  0  0  0  0  0  0  0  0
    7.6481   -2.4188   -3.0978 H   0  0  0  0  0  0  0  0  0  0  0  0
    7.5071   -0.8503   -5.0154 H   0  0  0  0  0  0  0  0  0  0  0  0
    7.1797    1.5739   -4.6185 H   0  0  0  0  0  0  0  0  0  0  0  0
    4.3957    0.8180   -1.5609 H   0  0  0  0  0  0  0  0  0  0  0  0
  1  2  1  0  0  0  0
  1 21  1  0  0  0  0
  1 22  1  0  0  0  0
  1 23  1  0  0  0  0
  2  3  1  0  0  0  0
  3  4  1  0  0  0  0
  3 20  2  0  0  0  0
  4  5  2  0  0  0  0
  4 24  1  0  0  0  0
  5  6  1  0  0  0  0
  5 25  1  0  0  0  0
  6  7  1  0  0  0  0
  6 19  2  0  0  0  0
  7  8  1  0  0  0  0
  8  9  1  0  0  0  0
  8 10  2  0  0  0  0
  9 26  1  0  0  0  0
  9 27  1  0  0  0  0
  9 28  1  0  0  0  0
 10 11  1  0  0  0  0
 10 19  1  0  0  0  0
 11 12  2  0  0  0  0
 11 13  1  0  0  0  0
 13 14  1  0  0  0  0
 13 18  2  0  0  0  0
 14 15  2  0  0  0  0
 14 29  1  0  0  0  0
 15 16  1  0  0  0  0
 15 30  1  0  0  0  0
 16 17  2  0  0  0  0
 16 31  1  0  0  0  0
 17 18  1  0  0  0  0
 17 32  1  0  0  0  0
 18 33  1  0  0  0  0
 19 20  1  0  0  0  0
 20 34  1  0  0  0  0
M  END
>  <Energy>
66.1042

$$$$

 OpenBabel04232614443D

 33 33  0  0  0  0  0  0  0  0999 V2000
    2.2585   -1.1106   -3.4367 C   0  0  0  0  0  0  0  0  0  0  0  0
    2.1353   -0.0808   -2.3366 C   0  0  0  0  0  0  0  0  0  0  0  0
    2.9204   -0.3955   -1.2092 O   0  0  0  0  0  0  0  0  0  0  0  0
    4.6504   -0.3955   -1.2092 P   0  0  0  0  0  0  0  0  0  0  0  0
    4.5957    1.1012   -1.5954 O   0  0  0  0  0  0  0  0  0  0  0  0
    4.6197   -0.5258    0.4483 O   0  0  0  0  0  0  0  0  0  0  0  0
    4.2838    0.6361    1.1981 C   0  0  0  0  0  0  0  0  0  0  0  0
    4.5722    0.3844    2.6653 C   0  0  0  0  0  0  0  0  0  0  0  0
    6.4804   -0.3955   -1.2092 C   0  0  0  0  0  0  0  0  0  0  0  0
    7.0928    0.6088   -1.8886 F   0  0  0  0  0  0  0  0  0  0  0  0
    7.2371   -1.3549   -0.6447 C   0  0  0  0  0  0  0  0  0  0  0  0
    8.7095   -1.3714   -0.6357 C   0  0  0  0  0  0  0  0  0  0  0  0
    9.4752   -0.2000   -0.5787 C   0  0  0  0  0  0  0  0  0  0  0  0
   10.8765   -0.2558   -0.5382 C   0  0  0  0  0  0  0  0  0  0  0  0
   11.5148   -1.4831   -0.5404 C   0  0  0  0  0  0  0  0  0  0  0  0
   12.8497   -1.5349   -0.5016 F   0  0  0  0  0  0  0  0  0  0  0  0
   10.7817   -2.6594   -0.5738 C   0  0  0  0  0  0  0  0  0  0  0  0
    9.3745   -2.6029   -0.6147 C   0  0  0  0  0  0  0  0  0  0  0  0
    1.4016   -1.0430   -4.1171 H   0  0  0  0  0  0  0  0  0  0  0  0
    2.3071   -2.1270   -3.0334 H   0  0  0  0  0  0  0  0  0  0  0  0
    3.1679   -0.9390   -4.0197 H   0  0  0  0  0  0  0  0  0  0  0  0
    1.0968   -0.0915   -1.9813 H   0  0  0  0  0  0  0  0  0  0  0  0
    2.3327    0.9317   -2.6946 H   0  0  0  0  0  0  0  0  0  0  0  0
    3.2210    0.8564    1.0608 H   0  0  0  0  0  0  0  0  0  0  0  0
    4.8754    1.4914    0.8581 H   0  0  0  0  0  0  0  0  0  0  0  0
    4.0904   -0.5356    3.0107 H   0  0  0  0  0  0  0  0  0  0  0  0
    4.2207    1.2209    3.2773 H   0  0  0  0  0  0  0  0  0  0  0  0
    5.6484    0.2644    2.8294 H   0  0  0  0  0  0  0  0  0  0  0  0
    6.7486   -2.1863   -0.1462 H   0  0  0  0  0  0  0  0  0  0  0  0
    8.9966    0.7804   -0.5604 H   0  0  0  0  0  0  0  0  0  0  0  0
   11.4574    0.6608   -0.5067 H   0  0  0  0  0  0  0  0  0  0  0  0
   11.2962   -3.6134   -0.5634 H   0  0  0  0  0  0  0  0  0  0  0  0
    8.8245   -3.5395   -0.6379 H   0  0  0  0  0  0  0  0  0  0  0  0
  1  2  1  0  0  0  0
  1 19  1  0  0  0  0
  1 20  1  0  0  0  0
  1 21  1  0  0  0  0
  2  3  1  0  0  0  0
  2 22  1  0  0  0  0
  2 23  1  0  0  0  0
  3  4  1  0  0  0  0
  4  5  2  0  0  0  0
  4  6  1  0  0  0  0
  4  9  1  0  0  0  0
  6  7  1  0  0  0  0
  7  8  1  0  0  0  0
  7 24  1  0  0  0  0
  7 25  1  0  0  0  0
  8 26  1  0  0  0  0
  8 27  1  0  0  0  0
  8 28  1  0  0  0  0
  9 10  1  0  0  0  0
  9 11  2  0  0  0  0
 11 12  1  0  0  0  0
 11 29  1  0  0  0  0
 12 13  1  0  0  0  0
 12 18  2  0  0  0  0
 13 14  2  0  0  0  0
 13 30  1  0  0  0  0
 14 15  1  0  0  0  0
 14 31  1  0  0  0  0
 15 16  1  0  0  0  0
 15 17  2  0  0  0  0
 17 18  1  0  0  0  0
 17 32  1  0  0  0  0
 18 33  1  0  0  0  0
M  END
>  <Energy>
552.071

$$$$

 OpenBabel04232614443D

 34 36  0  0  0  0  0  0  0  0999 V2000
   -2.4855    0.1776    0.0169 C   0  0  0  0  0  0  0  0  0  0  0  0
   -0.9925    0.0724    0.1057 C   0  0  0  0  0  0  0  0  0  0  0  0
   -0.3797   -1.1564    0.3395 C   0  0  0  0  0  0  0  0  0  0  0  0
    0.9979   -1.1900    0.4370 C   0  0  0  0  0  0  0  0  0  0  0  0
    1.7831   -0.1009    0.3243 N   0  0  0  0  0  0  0  0  0  0  0  0
    1.1994    1.0884    0.0973 C   0  0  0  0  0  0  0  0  0  0  0  0
    1.9815    2.2531   -0.0235 N   0  0  0  0  0  0  0  0  0  0  0  0
    3.3401    2.3105    0.2527 C   0  0  0  0  0  0  0  0  0  0  0  0
    4.0395    1.3917    0.6612 O   0  0  0  0  0  0  0  0  0  0  0  0
    3.9796    3.6568    0.0851 C   0  0  0  0  0  0  0  0  0  0  0  0
    3.2803    4.7859    0.5481 C   0  0  0  0  0  0  0  0  0  0  0  0
    3.8737    6.0438    0.5149 C   0  0  0  0  0  0  0  0  0  0  0  0
    5.1777    6.1830    0.0473 C   0  0  0  0  0  0  0  0  0  0  0  0
    5.9064    5.0748   -0.4097 C   0  0  0  0  0  0  0  0  0  0  0  0
    7.2324    5.2463   -0.8451 C   0  0  0  0  0  0  0  0  0  0  0  0
    7.9842    4.1686   -1.3080 C   0  0  0  0  0  0  0  0  0  0  0  0
    7.4125    2.9063   -1.3582 C   0  0  0  0  0  0  0  0  0  0  0  0
    6.0967    2.7200   -0.9258 C   0  0  0  0  0  0  0  0  0  0  0  0
    5.3110    3.7864   -0.4175 C   0  0  0  0  0  0  0  0  0  0  0  0
   -0.1836    1.2108   -0.0280 C   0  0  0  0  0  0  0  0  0  0  0  0
   -2.9629   -0.8026    0.1276 H   0  0  0  0  0  0  0  0  0  0  0  0
   -2.7810    0.5850   -0.9546 H   0  0  0  0  0  0  0  0  0  0  0  0
   -2.8666    0.8247    0.8135 H   0  0  0  0  0  0  0  0  0  0  0  0
   -0.9520   -2.0709    0.4487 H   0  0  0  0  0  0  0  0  0  0  0  0
    1.5293   -2.1199    0.6169 H   0  0  0  0  0  0  0  0  0  0  0  0
    1.5057    3.0889   -0.3161 H   0  0  0  0  0  0  0  0  0  0  0  0
    2.2906    4.6939    0.9865 H   0  0  0  0  0  0  0  0  0  0  0  0
    3.3359    6.9137    0.8838 H   0  0  0  0  0  0  0  0  0  0  0  0
    5.6329    7.1721    0.0560 H   0  0  0  0  0  0  0  0  0  0  0  0
    7.6996    6.2288   -0.8157 H   0  0  0  0  0  0  0  0  0  0  0  0
    9.0127    4.3155   -1.6264 H   0  0  0  0  0  0  0  0  0  0  0  0
    7.9867    2.0577   -1.7212 H   0  0  0  0  0  0  0  0  0  0  0  0
    5.6919    1.7103   -0.9798 H   0  0  0  0  0  0  0  0  0  0  0  0
   -0.6432    2.1779   -0.2023 H   0  0  0  0  0  0  0  0  0  0  0  0
  1  2  1  0  0  0  0
  1 21  1  0  0  0  0
  1 22  1  0  0  0  0
  1 23  1  0  0  0  0
  2  3  1  0  0  0  0
  2 20  2  0  0  0  0
  3  4  2  0  0  0  0
  3 24  1  0  0  0  0
  4  5  1  0  0  0  0
  4 25  1  0  0  0  0
  5  6  2  0  0  0  0
  6  7  1  0  0  0  0
  6 20  1  0  0  0  0
  7  8  1  0  0  0  0
  7 26  1  0  0  0  0
  8  9  2  0  0  0  0
  8 10  1  0  0  0  0
 10 11  1  0  0  0  0
 10 19  2  0  0  0  0
 11 12  2  0  0  0  0
 11 27  1  0  0  0  0
 12 13  1  0  0  0  0
 12 28  1  0  0  0  0
 13 14  2  0  0  0  0
 13 29  1  0  0  0  0
 14 15  1  0  0  0  0
 14 19  1  0  0  0  0
 15 16  2  0  0  0  0
 15 30  1  0  0  0  0
 16 17  1  0  0  0  0
 16 31  1  0  0  0  0
 17 18  2  0  0  0  0
 17 32  1  0  0  0  0
 18 19  1  0  0  0  0
 18 33  1  0  0  0  0
 20 34  1  0  0  0  0
M  END
>  <Energy>
32.1283

$$$$

 OpenBabel04232614443D

 35 37  0  0  0  0  0  0  0  0999 V2000
    1.0259    0.2815   -0.0961 C   0  0  0  0  0  0  0  0  0  0  0  0
    2.4018   -0.1630    0.1285 N   0  0  0  0  0  0  0  0  0  0  0  0
    3.1377    0.2276    1.2242 N   0  0  0  0  0  0  0  0  0  0  0  0
    2.5441    0.2877    2.3756 C   0  0  0  0  0  0  0  0  0  0  0  0
    3.2771    0.6077    3.6258 C   0  0  0  0  0  0  0  0  0  0  0  0
    4.6703    0.7642    3.5998 C   0  0  0  0  0  0  0  0  0  0  0  0
    5.3620    1.0380    4.7785 C   0  0  0  0  0  0  0  0  0  0  0  0
    4.6576    1.1439    5.9749 C   0  0  0  0  0  0  0  0  0  0  0  0
    3.2616    0.9783    6.0012 C   0  0  0  0  0  0  0  0  0  0  0  0
    2.5470    1.0729    7.2079 C   0  0  0  0  0  0  0  0  0  0  0  0
    1.1694    0.9113    7.2153 C   0  0  0  0  0  0  0  0  0  0  0  0
    0.5421    0.6619    6.0163 C   0  0  0  0  0  0  0  0  0  0  0  0
    1.1958    0.5590    4.8368 N   0  0  0  0  0  0  0  0  0  0  0  0
    2.5412    0.7106    4.8162 C   0  0  0  0  0  0  0  0  0  0  0  0
    3.1197   -0.6766   -0.9811 C   0  0  0  0  0  0  0  0  0  0  0  0
    2.5327   -0.8718   -2.2455 C   0  0  0  0  0  0  0  0  0  0  0  0
    3.2489   -1.4135   -3.3198 C   0  0  0  0  0  0  0  0  0  0  0  0
    4.5811   -1.7794   -3.1566 C   0  0  0  0  0  0  0  0  0  0  0  0
    5.1904   -1.6012   -1.9200 C   0  0  0  0  0  0  0  0  0  0  0  0
    4.4681   -1.0583   -0.8506 C   0  0  0  0  0  0  0  0  0  0  0  0
    0.5585    0.7344    0.7811 H   0  0  0  0  0  0  0  0  0  0  0  0
    0.4041   -0.5789   -0.3728 H   0  0  0  0  0  0  0  0  0  0  0  0
    0.9732    1.0322   -0.8929 H   0  0  0  0  0  0  0  0  0  0  0  0
    1.4687    0.0750    2.4861 H   0  0  0  0  0  0  0  0  0  0  0  0
    5.2204    0.6650    2.6658 H   0  0  0  0  0  0  0  0  0  0  0  0
    6.4399    1.1643    4.7644 H   0  0  0  0  0  0  0  0  0  0  0  0
    5.2048    1.3571    6.8920 H   0  0  0  0  0  0  0  0  0  0  0  0
    3.0638    1.2707    8.1430 H   0  0  0  0  0  0  0  0  0  0  0  0
    0.5983    0.9805    8.1372 H   0  0  0  0  0  0  0  0  0  0  0  0
   -0.5347    0.5308    5.9582 H   0  0  0  0  0  0  0  0  0  0  0  0
    1.4969   -0.6069   -2.4317 H   0  0  0  0  0  0  0  0  0  0  0  0
    2.7592   -1.5504   -4.2797 H   0  0  0  0  0  0  0  0  0  0  0  0
    5.1365   -2.2003   -3.9873 H   0  0  0  0  0  0  0  0  0  0  0  0
    6.2290   -1.8875   -1.7775 H   0  0  0  0  0  0  0  0  0  0  0  0
    4.9698   -0.9420    0.1068 H   0  0  0  0  0  0  0  0  0  0  0  0
  1  2  1  0  0  0  0
  1 21  1  0  0  0  0
  1 22  1  0  0  0  0
  1 23  1  0  0  0  0
  2  3  1  0  0  0  0
  2 15  1  0  0  0  0
  3  4  2  0  0  0  0
  4  5  1  0  0  0  0
  4 24  1  0  0  0  0
  5  6  1  0  0  0  0
  5 14  2  0  0  0  0
  6  7  2  0  0  0  0
  6 25  1  0  0  0  0
  7  8  1  0  0  0  0
  7 26  1  0  0  0  0
  8  9  2  0  0  0  0
  8 27  1  0  0  0  0
  9 10  1  0  0  0  0
  9 14  1  0  0  0  0
 10 11  2  0  0  0  0
 10 28  1  0  0  0  0
 11 12  1  0  0  0  0
 11 29  1  0  0  0  0
 12 13  2  0  0  0  0
 12 30  1  0  0  0  0
 13 14  1  0  0  0  0
 15 16  1  0  0  0  0
 15 20  2  0  0  0  0
 16 17  2  0  0  0  0
 16 31  1  0  0  0  0
 17 18  1  0  0  0  0
 17 32  1  0  0  0  0
 18 19  2  0  0  0  0
 18 33  1  0  0  0  0
 19 20  1  0  0  0  0
 19 34  1  0  0  0  0
 20 35  1  0  0  0  0
M  END
>  <Energy>
91.9465

$$$$

 OpenBabel04232614443D

 40 42  0  0  0  0  0  0  0  0999 V2000
    1.9273    0.2410    1.3035 C   0  0  0  0  0  0  0  0  0  0  0  0
    0.5503    0.2079    0.7116 C   0  0  0  0  0  0  0  0  0  0  0  0
    0.0248    1.3047    0.0297 C   0  0  0  0  0  0  0  0  0  0  0  0
   -1.2332    1.2192   -0.5629 C   0  0  0  0  0  0  0  0  0  0  0  0
   -1.9627    0.0240   -0.5124 C   0  0  0  0  0  0  0  0  0  0  0  0
   -1.4583   -1.1064    0.1444 C   0  0  0  0  0  0  0  0  0  0  0  0
   -2.1021   -2.3850    0.1097 N   0  0  0  0  0  0  0  0  0  0  0  0
   -1.1561   -3.4026   -0.3503 C   0  0  0  0  0  0  0  0  0  0  0  0
   -3.5000   -2.6569    0.1001 C   0  0  0  0  0  0  0  0  0  0  0  0
   -4.3049   -1.5711    0.1206 N   0  0  0  0  0  0  0  0  0  0  0  0
   -5.6228   -1.7416    0.0813 C   0  0  0  0  0  0  0  0  0  0  0  0
   -6.2604   -2.9078    0.0415 N   0  0  0  0  0  0  0  0  0  0  0  0
   -5.4990   -3.9993    0.0669 C   0  0  0  0  0  0  0  0  0  0  0  0
   -6.1835   -5.2087    0.0591 C   0  0  0  0  0  0  0  0  0  0  0  0
   -5.5461   -6.4575    0.0942 C   0  0  0  0  0  0  0  0  0  0  0  0
   -6.3715   -7.7112    0.0976 C   0  0  0  0  0  0  0  0  0  0  0  0
   -4.1544   -6.4800    0.1481 C   0  0  0  0  0  0  0  0  0  0  0  0
   -3.3414   -7.7461    0.1501 C   0  0  0  0  0  0  0  0  0  0  0  0
   -3.4620   -5.2545    0.1871 C   0  0  0  0  0  0  0  0  0  0  0  0
   -4.0927   -3.9694    0.1136 C   0  0  0  0  0  0  0  0  0  0  0  0
   -0.2096   -0.9696    0.7898 C   0  0  0  0  0  0  0  0  0  0  0  0
    2.3790    1.2342    1.2204 H   0  0  0  0  0  0  0  0  0  0  0  0
    2.5737   -0.4671    0.7719 H   0  0  0  0  0  0  0  0  0  0  0  0
    1.8957   -0.0306    2.3628 H   0  0  0  0  0  0  0  0  0  0  0  0
    0.5922    2.2292   -0.0536 H   0  0  0  0  0  0  0  0  0  0  0  0
   -1.6425    2.0746   -1.0937 H   0  0  0  0  0  0  0  0  0  0  0  0
   -2.9109   -0.0164   -1.0397 H   0  0  0  0  0  0  0  0  0  0  0  0
   -0.2227   -2.9893   -0.7560 H   0  0  0  0  0  0  0  0  0  0  0  0
   -1.5587   -3.9949   -1.1784 H   0  0  0  0  0  0  0  0  0  0  0  0
   -0.8583   -4.0387    0.4907 H   0  0  0  0  0  0  0  0  0  0  0  0
   -6.2369   -0.8464    0.0820 H   0  0  0  0  0  0  0  0  0  0  0  0
   -7.2720   -5.1715    0.0269 H   0  0  0  0  0  0  0  0  0  0  0  0
   -7.4439   -7.4907    0.0750 H   0  0  0  0  0  0  0  0  0  0  0  0
   -6.1766   -8.2883    1.0078 H   0  0  0  0  0  0  0  0  0  0  0  0
   -6.1413   -8.3233   -0.7802 H   0  0  0  0  0  0  0  0  0  0  0  0
   -3.9548   -8.6504    0.1574 H   0  0  0  0  0  0  0  0  0  0  0  0
   -2.6974   -7.7767    1.0352 H   0  0  0  0  0  0  0  0  0  0  0  0
   -2.7141   -7.7820   -0.7471 H   0  0  0  0  0  0  0  0  0  0  0  0
   -2.3899   -5.3414    0.2942 H   0  0  0  0  0  0  0  0  0  0  0  0
    0.1982   -1.8133    1.3431 H   0  0  0  0  0  0  0  0  0  0  0  0
  1  2  1  0  0  0  0
  1 22  1  0  0  0  0
  1 23  1  0  0  0  0
  1 24  1  0  0  0  0
  2  3  1  0  0  0  0
  2 21  2  0  0  0  0
  3  4  2  0  0  0  0
  3 25  1  0  0  0  0
  4  5  1  0  0  0  0
  4 26  1  0  0  0  0
  5  6  2  0  0  0  0
  5 27  1  0  0  0  0
  6  7  1  0  0  0  0
  6 21  1  0  0  0  0
  7  8  1  0  0  0  0
  7  9  1  0  0  0  0
  8 28  1  0  0  0  0
  8 29  1  0  0  0  0
  8 30  1  0  0  0  0
  9 10  1  0  0  0  0
  9 20  2  0  0  0  0
 10 11  2  0  0  0  0
 11 12  1  0  0  0  0
 11 31  1  0  0  0  0
 12 13  2  0  0  0  0
 13 14  1  0  0  0  0
 13 20  1  0  0  0  0
 14 15  2  0  0  0  0
 14 32  1  0  0  0  0
 15 16  1  0  0  0  0
 15 17  1  0  0  0  0
 16 33  1  0  0  0  0
 16 34  1  0  0  0  0
 16 35  1  0  0  0  0
 17 18  1  0  0  0  0
 17 19  2  0  0  0  0
 18 36  1  0  0  0  0
 18 37  1  0  0  0  0
 18 38  1  0  0  0  0
 19 20  1  0  0  0  0
 19 39  1  0  0  0  0
 21 40  1  0  0  0  0
M  END
>  <Energy>
44.6903

$$$$

 OpenBabel04232614443D

 34 36  0  0  0  0  0  0  0  0999 V2000
    1.7911   -1.6116    0.8913 C   0  0  0  0  0  0  0  0  0  0  0  0
    3.1757   -1.0500    0.7182 C   0  0  0  0  0  0  0  0  0  0  0  0
    4.1908   -1.9634    0.0869 C   0  0  0  0  0  0  0  0  0  0  0  0
    3.4474    0.2240    1.0705 C   0  0  0  0  0  0  0  0  0  0  0  0
    4.7193    0.9640    0.7679 C   0  0  0  0  0  0  0  0  0  0  0  0
    5.1482    1.7207    1.9026 O   0  0  0  0  0  0  0  0  0  0  0  0
    6.5086    1.7629    2.0935 C   0  0  0  0  0  0  0  0  0  0  0  0
    6.9796    1.5242    3.4074 C   0  0  0  0  0  0  0  0  0  0  0  0
    6.3718    1.2440    4.6667 C   0  0  0  0  0  0  0  0  0  0  0  0
    7.3961    1.1262    5.5808 C   0  0  0  0  0  0  0  0  0  0  0  0
    8.5970    1.2934    4.9729 O   0  0  0  0  0  0  0  0  0  0  0  0
    8.3464    1.5331    3.6565 C   0  0  0  0  0  0  0  0  0  0  0  0
    9.3182    1.7504    2.6913 C   0  0  0  0  0  0  0  0  0  0  0  0
    8.8333    2.0144    1.4103 C   0  0  0  0  0  0  0  0  0  0  0  0
    9.8290    2.1981    0.4186 O   0  0  0  0  0  0  0  0  0  0  0  0
    9.5049    2.4241   -0.9086 C   0  0  0  0  0  0  0  0  0  0  0  0
   10.3451    2.4725   -1.7984 O   0  0  0  0  0  0  0  0  0  0  0  0
    8.0856    2.6600   -1.1949 C   0  0  0  0  0  0  0  0  0  0  0  0
    7.1388    2.5250   -0.2618 C   0  0  0  0  0  0  0  0  0  0  0  0
    7.4671    2.0766    1.0921 C   0  0  0  0  0  0  0  0  0  0  0  0
    1.8070   -2.7026    0.9830 H   0  0  0  0  0  0  0  0  0  0  0  0
    1.1769   -1.3570    0.0199 H   0  0  0  0  0  0  0  0  0  0  0  0
    1.3048   -1.2176    1.7890 H   0  0  0  0  0  0  0  0  0  0  0  0
    3.8591   -3.0065    0.1010 H   0  0  0  0  0  0  0  0  0  0  0  0
    5.1389   -1.9332    0.6344 H   0  0  0  0  0  0  0  0  0  0  0  0
    4.3682   -1.6810   -0.9558 H   0  0  0  0  0  0  0  0  0  0  0  0
    2.6586    0.8314    1.5111 H   0  0  0  0  0  0  0  0  0  0  0  0
    4.4607    1.6745   -0.0237 H   0  0  0  0  0  0  0  0  0  0  0  0
    5.4994    0.2905    0.4010 H   0  0  0  0  0  0  0  0  0  0  0  0
    5.3169    1.1546    4.8753 H   0  0  0  0  0  0  0  0  0  0  0  0
    7.4346    0.9337    6.6443 H   0  0  0  0  0  0  0  0  0  0  0  0
   10.3744    1.7276    2.9245 H   0  0  0  0  0  0  0  0  0  0  0  0
    7.8527    2.9781   -2.2038 H   0  0  0  0  0  0  0  0  0  0  0  0
    6.1201    2.7918   -0.5052 H   0  0  0  0  0  0  0  0  0  0  0  0
  1  2  1  0  0  0  0
  1 21  1  0  0  0  0
  1 22  1  0  0  0  0
  1 23  1  0  0  0  0
  2  3  1  0  0  0  0
  2  4  2  0  0  0  0
  3 24  1  0  0  0  0
  3 25  1  0  0  0  0
  3 26  1  0  0  0  0
  4  5  1  0  0  0  0
  4 27  1  0  0  0  0
  5  6  1  0  0  0  0
  5 28  1  0  0  0  0
  5 29  1  0  0  0  0
  6  7  1  0  0  0  0
  7  8  1  0  0  0  0
  7 20  2  0  0  0  0
  8  9  1  0  0  0  0
  8 12  2  0  0  0  0
  9 10  2  0  0  0  0
  9 30  1  0  0  0  0
 10 11  1  0  0  0  0
 10 31  1  0  0  0  0
 11 12  1  0  0  0  0
 12 13  1  0  0  0  0
 13 14  2  0  0  0  0
 13 32  1  0  0  0  0
 14 15  1  0  0  0  0
 14 20  1  0  0  0  0
 15 16  1  0  0  0  0
 16 17  2  0  0  0  0
 16 18  1  0  0  0  0
 18 19  2  0  0  0  0
 18 33  1  0  0  0  0
 19 20  1  0  0  0  0
 19 34  1  0  0  0  0
M  END
>  <Energy>
61.6026

$$$$

 OpenBabel04232614443D

 31 33  0  0  0  0  0  0  0  0999 V2000
    1.0168   -0.5528    0.4348 N   0  0  0  0  0  0  0  0  0  0  0  0
    2.2677   -0.4326    0.3300 C   0  0  0  0  0  0  0  0  0  0  0  0
    3.7754   -0.2877    0.2036 C   0  0  0  0  0  0  0  0  0  0  0  0
    4.1968   -0.7776   -1.5155 S   0  0  0  0  0  0  0  0  0  0  0  0
    5.9816   -0.6742   -1.5399 C   0  0  0  0  0  0  0  0  0  0  0  0
    6.5960   -0.4993   -0.3548 N   0  0  0  0  0  0  0  0  0  0  0  0
    7.9607   -0.4555   -0.2922 N   0  0  0  0  0  0  0  0  0  0  0  0
    8.7146   -0.6044   -1.4119 C   0  0  0  0  0  0  0  0  0  0  0  0
   10.1701   -0.5091   -1.1658 C   0  0  0  0  0  0  0  0  0  0  0  0
   10.7682   -1.2454   -0.1257 C   0  0  0  0  0  0  0  0  0  0  0  0
   12.1436   -1.1716    0.1183 C   0  0  0  0  0  0  0  0  0  0  0  0
   12.9510   -0.3614   -0.6735 C   0  0  0  0  0  0  0  0  0  0  0  0
   12.3830    0.3941   -1.6945 C   0  0  0  0  0  0  0  0  0  0  0  0
   11.0049    0.3337   -1.9258 C   0  0  0  0  0  0  0  0  0  0  0  0
    8.1170   -0.8202   -2.6761 C   0  0  0  0  0  0  0  0  0  0  0  0
    8.8434   -1.0507   -3.8778 C   0  0  0  0  0  0  0  0  0  0  0  0
    8.2145   -1.2112   -5.1117 C   0  0  0  0  0  0  0  0  0  0  0  0
    6.8340   -1.1708   -5.1861 C   0  0  0  0  0  0  0  0  0  0  0  0
    6.0908   -0.9939   -4.0194 C   0  0  0  0  0  0  0  0  0  0  0  0
    6.7034   -0.8278   -2.7460 C   0  0  0  0  0  0  0  0  0  0  0  0
    4.2686   -0.9434    0.9268 H   0  0  0  0  0  0  0  0  0  0  0  0
    4.0690    0.7513    0.3775 H   0  0  0  0  0  0  0  0  0  0  0  0
   10.1565   -1.8846    0.5085 H   0  0  0  0  0  0  0  0  0  0  0  0
   12.5805   -1.7485    0.9304 H   0  0  0  0  0  0  0  0  0  0  0  0
   14.0205   -0.3080   -0.4862 H   0  0  0  0  0  0  0  0  0  0  0  0
   13.0081    1.0366   -2.3071 H   0  0  0  0  0  0  0  0  0  0  0  0
   10.5856    0.9579   -2.7127 H   0  0  0  0  0  0  0  0  0  0  0  0
    9.9302   -1.1195   -3.8650 H   0  0  0  0  0  0  0  0  0  0  0  0
    8.8057   -1.3698   -6.0108 H   0  0  0  0  0  0  0  0  0  0  0  0
    6.3296   -1.2885   -6.1412 H   0  0  0  0  0  0  0  0  0  0  0  0
    5.0070   -0.9885   -4.1239 H   0  0  0  0  0  0  0  0  0  0  0  0
  1  2  3  0  0  0  0
  2  3  1  0  0  0  0
  3  4  1  0  0  0  0
  3 21  1  0  0  0  0
  3 22  1  0  0  0  0
  4  5  1  0  0  0  0
  5  6  1  0  0  0  0
  5 20  2  0  0  0  0
  6  7  2  0  0  0  0
  7  8  1  0  0  0  0
  8  9  1  0  0  0  0
  8 15  2  0  0  0  0
  9 10  1  0  0  0  0
  9 14  2  0  0  0  0
 10 11  2  0  0  0  0
 10 23  1  0  0  0  0
 11 12  1  0  0  0  0
 11 24  1  0  0  0  0
 12 13  2  0  0  0  0
 12 25  1  0  0  0  0
 13 14  1  0  0  0  0
 13 26  1  0  0  0  0
 14 27  1  0  0  0  0
 15 16  1  0  0  0  0
 15 20  1  0  0  0  0
 16 17  2  0  0  0  0
 16 28  1  0  0  0  0
 17 18  1  0  0  0  0
 17 29  1  0  0  0  0
 18 19  2  0  0  0  0
 18 30  1  0  0  0  0
 19 20  1  0  0  0  0
 19 31  1  0  0  0  0
M  END
>  <Energy>
233.827

$$$$

 OpenBabel04232614443D

 32 35  0  0  0  0  0  0  0  0999 V2000
    2.4013   -0.7009   -0.0149 C   0  0  0  0  0  0  0  0  0  0  0  0
    2.4086    0.6905   -0.0049 C   0  0  0  0  0  0  0  0  0  0  0  0
    1.2021    1.3905    0.0021 C   0  0  0  0  0  0  0  0  0  0  0  0
   -0.0261    0.7085   -0.0074 C   0  0  0  0  0  0  0  0  0  0  0  0
   -1.2471    1.4056    0.0025 C   0  0  0  0  0  0  0  0  0  0  0  0
   -2.4863    0.7493   -0.0143 C   0  0  0  0  0  0  0  0  0  0  0  0
   -3.7150    1.4405    0.0897 N   0  0  0  0  0  0  0  0  0  0  0  0
   -3.9698    2.6810    0.5877 C   0  0  0  0  0  0  0  0  0  0  0  0
   -3.0996    3.4802    1.2263 N   0  0  0  0  0  0  0  0  0  0  0  0
   -3.8162    4.5587    1.5599 N   0  0  0  0  0  0  0  0  0  0  0  0
   -5.1205    4.5178    1.1677 C   0  0  0  0  0  0  0  0  0  0  0  0
   -6.1747    5.4157    1.3112 C   0  0  0  0  0  0  0  0  0  0  0  0
   -7.3844    5.0016    0.7651 C   0  0  0  0  0  0  0  0  0  0  0  0
   -7.4619    3.7613    0.1381 C   0  0  0  0  0  0  0  0  0  0  0  0
   -6.4459    2.8753   -0.0039 N   0  0  0  0  0  0  0  0  0  0  0  0
   -5.2637    3.2938    0.5278 C   0  0  0  0  0  0  0  0  0  0  0  0
   -2.4779   -0.6508   -0.0288 C   0  0  0  0  0  0  0  0  0  0  0  0
   -1.2720   -1.3675   -0.0299 C   0  0  0  0  0  0  0  0  0  0  0  0
   -0.0366   -0.7005   -0.0203 C   0  0  0  0  0  0  0  0  0  0  0  0
    1.1876   -1.3929   -0.0189 C   0  0  0  0  0  0  0  0  0  0  0  0
    3.3402   -1.2483   -0.0188 H   0  0  0  0  0  0  0  0  0  0  0  0
    3.3502    1.2329   -0.0004 H   0  0  0  0  0  0  0  0  0  0  0  0
    1.2223    2.4782    0.0171 H   0  0  0  0  0  0  0  0  0  0  0  0
   -1.2215    2.4922    0.0108 H   0  0  0  0  0  0  0  0  0  0  0  0
   -4.5095    0.9196   -0.2706 H   0  0  0  0  0  0  0  0  0  0  0  0
   -3.3459    5.2986    2.0672 H   0  0  0  0  0  0  0  0  0  0  0  0
   -6.0633    6.3701    1.8121 H   0  0  0  0  0  0  0  0  0  0  0  0
   -8.2612    5.6388    0.8280 H   0  0  0  0  0  0  0  0  0  0  0  0
   -8.4078    3.4351   -0.2906 H   0  0  0  0  0  0  0  0  0  0  0  0
   -3.4128   -1.2050   -0.0110 H   0  0  0  0  0  0  0  0  0  0  0  0
   -1.3060   -2.4545   -0.0251 H   0  0  0  0  0  0  0  0  0  0  0  0
    1.2034   -2.4802   -0.0213 H   0  0  0  0  0  0  0  0  0  0  0  0
  1  2  1  0  0  0  0
  1 20  2  0  0  0  0
  1 21  1  0  0  0  0
  2  3  2  0  0  0  0
  2 22  1  0  0  0  0
  3  4  1  0  0  0  0
  3 23  1  0  0  0  0
  4  5  1  0  0  0  0
  4 19  2  0  0  0  0
  5  6  2  0  0  0  0
  5 24  1  0  0  0  0
  6  7  1  0  0  0  0
  6 17  1  0  0  0  0
  7  8  1  0  0  0  0
  7 25  1  0  0  0  0
  8  9  2  0  0  0  0
  8 16  1  0  0  0  0
  9 10  1  0  0  0  0
 10 11  1  0  0  0  0
 10 26  1  0  0  0  0
 11 12  1  0  0  0  0
 11 16  2  0  0  0  0
 12 13  2  0  0  0  0
 12 27  1  0  0  0  0
 13 14  1  0  0  0  0
 13 28  1  0  0  0  0
 14 15  2  0  0  0  0
 14 29  1  0  0  0  0
 15 16  1  0  0  0  0
 17 18  2  0  0  0  0
 17 30  1  0  0  0  0
 18 19  1  0  0  0  0
 18 31  1  0  0  0  0
 19 20  1  0  0  0  0
 20 32  1  0  0  0  0
M  END
>  <Energy>
49.9304

$$$$

 OpenBabel04232614443D

 36 38  0  0  0  0  0  0  0  0999 V2000
    1.9950    0.6350    0.4852 C   0  0  0  0  0  0  0  0  0  0  0  0
    0.6960    0.0010    0.8972 C   0  0  0  0  0  0  0  0  0  0  0  0
   -0.2071    0.7949    1.6294 C   0  0  0  0  0  0  0  0  0  0  0  0
   -1.4660    0.3146    1.9930 C   0  0  0  0  0  0  0  0  0  0  0  0
   -1.8402   -0.9769    1.6439 C   0  0  0  0  0  0  0  0  0  0  0  0
   -0.9419   -1.7931    0.9585 C   0  0  0  0  0  0  0  0  0  0  0  0
    0.3351   -1.3274    0.6074 C   0  0  0  0  0  0  0  0  0  0  0  0
    1.0638   -2.2270   -0.1387 O   0  0  0  0  0  0  0  0  0  0  0  0
    2.4031   -2.4303    0.0845 C   0  0  0  0  0  0  0  0  0  0  0  0
    3.0636   -2.2237    1.2930 C   0  0  0  0  0  0  0  0  0  0  0  0
    4.4491   -2.3762    1.3600 C   0  0  0  0  0  0  0  0  0  0  0  0
    5.1658   -2.8156    0.2431 C   0  0  0  0  0  0  0  0  0  0  0  0
    4.4983   -3.1370   -0.9463 C   0  0  0  0  0  0  0  0  0  0  0  0
    5.2418   -3.7322   -2.1133 C   0  0  0  0  0  0  0  0  0  0  0  0
    5.5267   -2.7615   -3.1535 N   0  0  0  0  0  0  0  0  0  0  0  0
    4.7833   -2.5357   -4.2795 C   0  0  0  0  0  0  0  0  0  0  0  0
    5.5212   -1.6416   -5.0177 C   0  0  0  0  0  0  0  0  0  0  0  0
    6.6890   -1.3251   -4.3757 N   0  0  0  0  0  0  0  0  0  0  0  0
    6.6632   -2.0138   -3.2567 C   0  0  0  0  0  0  0  0  0  0  0  0
    3.1144   -2.9225   -1.0168 C   0  0  0  0  0  0  0  0  0  0  0  0
    1.8724    1.7152    0.3486 H   0  0  0  0  0  0  0  0  0  0  0  0
    2.3518    0.2436   -0.4710 H   0  0  0  0  0  0  0  0  0  0  0  0
    2.7549    0.4877    1.2584 H   0  0  0  0  0  0  0  0  0  0  0  0
    0.0593    1.8161    1.8974 H   0  0  0  0  0  0  0  0  0  0  0  0
   -2.1579    0.9571    2.5313 H   0  0  0  0  0  0  0  0  0  0  0  0
   -2.8310   -1.3461    1.8952 H   0  0  0  0  0  0  0  0  0  0  0  0
   -1.2431   -2.7999    0.6782 H   0  0  0  0  0  0  0  0  0  0  0  0
    2.5209   -1.9036    2.1792 H   0  0  0  0  0  0  0  0  0  0  0  0
    4.9735   -2.1500    2.2855 H   0  0  0  0  0  0  0  0  0  0  0  0
    6.2457   -2.9250    0.3203 H   0  0  0  0  0  0  0  0  0  0  0  0
    4.6589   -4.5472   -2.5600 H   0  0  0  0  0  0  0  0  0  0  0  0
    6.1959   -4.1676   -1.7924 H   0  0  0  0  0  0  0  0  0  0  0  0
    3.8321   -3.0177   -4.4640 H   0  0  0  0  0  0  0  0  0  0  0  0
    5.2786   -1.2180   -5.9856 H   0  0  0  0  0  0  0  0  0  0  0  0
    7.4436   -2.0164   -2.5026 H   0  0  0  0  0  0  0  0  0  0  0  0
    2.5717   -3.1376   -1.9349 H   0  0  0  0  0  0  0  0  0  0  0  0
  1  2  1  0  0  0  0
  1 21  1  0  0  0  0
  1 22  1  0  0  0  0
  1 23  1  0  0  0  0
  2  3  1  0  0  0  0
  2  7  2  0  0  0  0
  3  4  2  0  0  0  0
  3 24  1  0  0  0  0
  4  5  1  0  0  0  0
  4 25  1  0  0  0  0
  5  6  2  0  0  0  0
  5 26  1  0  0  0  0
  6  7  1  0  0  0  0
  6 27  1  0  0  0  0
  7  8  1  0  0  0  0
  8  9  1  0  0  0  0
  9 10  1  0  0  0  0
  9 20  2  0  0  0  0
 10 11  2  0  0  0  0
 10 28  1  0  0  0  0
 11 12  1  0  0  0  0
 11 29  1  0  0  0  0
 12 13  2  0  0  0  0
 12 30  1  0  0  0  0
 13 14  1  0  0  0  0
 13 20  1  0  0  0  0
 14 15  1  0  0  0  0
 14 31  1  0  0  0  0
 14 32  1  0  0  0  0
 15 16  1  0  0  0  0
 15 19  1  0  0  0  0
 16 17  2  0  0  0  0
 16 33  1  0  0  0  0
 17 18  1  0  0  0  0
 17 34  1  0  0  0  0
 18 19  2  0  0  0  0
 19 35  1  0  0  0  0
 20 36  1  0  0  0  0
M  END
>  <Energy>
66.1985

$$$$

 OpenBabel04232614443D

 38 39  0  0  0  0  0  0  0  0999 V2000
    0.6319    0.6958   -1.0342 C   0  0  0  0  0  0  0  0  0  0  0  0
    2.0336    0.5586   -1.2359 O   0  0  0  0  0  0  0  0  0  0  0  0
    2.8370    1.5049   -0.6612 C   0  0  0  0  0  0  0  0  0  0  0  0
    2.4012    2.6244    0.0472 C   0  0  0  0  0  0  0  0  0  0  0  0
    3.3247    3.5120    0.6195 C   0  0  0  0  0  0  0  0  0  0  0  0
    2.9031    4.6745    1.4149 C   0  0  0  0  0  0  0  0  0  0  0  0
    1.8125    4.6850    2.1913 C   0  0  0  0  0  0  0  0  0  0  0  0
    1.4956    5.7546    2.9937 O   0  0  0  0  0  0  0  0  0  0  0  0
    0.7695    5.5150    4.1433 C   0  0  0  0  0  0  0  0  0  0  0  0
    0.9165    4.3404    4.8939 C   0  0  0  0  0  0  0  0  0  0  0  0
    0.1985    4.1665    6.0767 C   0  0  0  0  0  0  0  0  0  0  0  0
   -0.6505    5.1731    6.5270 C   0  0  0  0  0  0  0  0  0  0  0  0
   -0.7861    6.3538    5.7944 C   0  0  0  0  0  0  0  0  0  0  0  0
   -0.0768    6.5388    4.5978 C   0  0  0  0  0  0  0  0  0  0  0  0
   -0.2404    7.8107    3.8160 C   0  0  0  0  0  0  0  0  0  0  0  0
    4.6974    3.2887    0.4293 C   0  0  0  0  0  0  0  0  0  0  0  0
    5.1423    2.1724   -0.2787 C   0  0  0  0  0  0  0  0  0  0  0  0
    6.4490    1.8289   -0.5026 O   0  0  0  0  0  0  0  0  0  0  0  0
    7.4462    2.6752    0.0551 C   0  0  0  0  0  0  0  0  0  0  0  0
    4.2075    1.2880   -0.8193 C   0  0  0  0  0  0  0  0  0  0  0  0
    0.1395   -0.1607   -1.5045 H   0  0  0  0  0  0  0  0  0  0  0  0
    0.2548    1.6037   -1.5158 H   0  0  0  0  0  0  0  0  0  0  0  0
    0.3798    0.6790    0.0312 H   0  0  0  0  0  0  0  0  0  0  0  0
    1.3412    2.8222    0.1645 H   0  0  0  0  0  0  0  0  0  0  0  0
    3.5653    5.5362    1.4189 H   0  0  0  0  0  0  0  0  0  0  0  0
    1.1107    3.8641    2.2615 H   0  0  0  0  0  0  0  0  0  0  0  0
    1.6004    3.5572    4.5795 H   0  0  0  0  0  0  0  0  0  0  0  0
    0.3113    3.2503    6.6503 H   0  0  0  0  0  0  0  0  0  0  0  0
   -1.2018    5.0436    7.4551 H   0  0  0  0  0  0  0  0  0  0  0  0
   -1.4462    7.1333    6.1683 H   0  0  0  0  0  0  0  0  0  0  0  0
   -0.8814    8.5255    4.3428 H   0  0  0  0  0  0  0  0  0  0  0  0
   -0.7016    7.5991    2.8460 H   0  0  0  0  0  0  0  0  0  0  0  0
    0.7303    8.2919    3.6603 H   0  0  0  0  0  0  0  0  0  0  0  0
    5.4031    3.9891    0.8642 H   0  0  0  0  0  0  0  0  0  0  0  0
    8.4203    2.2159   -0.1383 H   0  0  0  0  0  0  0  0  0  0  0  0
    7.3354    2.7659    1.1409 H   0  0  0  0  0  0  0  0  0  0  0  0
    7.4359    3.6579   -0.4275 H   0  0  0  0  0  0  0  0  0  0  0  0
    4.5507    0.4143   -1.3682 H   0  0  0  0  0  0  0  0  0  0  0  0
  1  2  1  0  0  0  0
  1 21  1  0  0  0  0
  1 22  1  0  0  0  0
  1 23  1  0  0  0  0
  2  3  1  0  0  0  0
  3  4  1  0  0  0  0
  3 20  2  0  0  0  0
  4  5  2  0  0  0  0
  4 24  1  0  0  0  0
  5  6  1  0  0  0  0
  5 16  1  0  0  0  0
  6  7  2  0  0  0  0
  6 25  1  0  0  0  0
  7  8  1  0  0  0  0
  7 26  1  0  0  0  0
  8  9  1  0  0  0  0
  9 10  1  0  0  0  0
  9 14  2  0  0  0  0
 10 11  2  0  0  0  0
 10 27  1  0  0  0  0
 11 12  1  0  0  0  0
 11 28  1  0  0  0  0
 12 13  2  0  0  0  0
 12 29  1  0  0  0  0
 13 14  1  0  0  0  0
 13 30  1  0  0  0  0
 14 15  1  0  0  0  0
 15 31  1  0  0  0  0
 15 32  1  0  0  0  0
 15 33  1  0  0  0  0
 16 17  2  0  0  0  0
 16 34  1  0  0  0  0
 17 18  1  0  0  0  0
 17 20  1  0  0  0  0
 18 19  1  0  0  0  0
 19 35  1  0  0  0  0
 19 36  1  0  0  0  0
 19 37  1  0  0  0  0
 20 38  1  0  0  0  0
M  END
>  <Energy>
52.393

$$$$

 OpenBabel04232614443D

 34 37  0  0  0  0  0  0  0  0999 V2000
    1.1369    0.0751    0.2693 C   0  0  0  0  0  0  0  0  0  0  0  0
    0.1233   -0.1647    1.1860 C   0  0  0  0  0  0  0  0  0  0  0  0
   -1.2137   -0.0560    0.7914 C   0  0  0  0  0  0  0  0  0  0  0  0
   -1.5739    0.2924   -0.5268 C   0  0  0  0  0  0  0  0  0  0  0  0
   -3.0010    0.3958   -0.9142 C   0  0  0  0  0  0  0  0  0  0  0  0
   -3.4488    1.1431   -2.0001 C   0  0  0  0  0  0  0  0  0  0  0  0
   -4.8158    1.2307   -2.2505 C   0  0  0  0  0  0  0  0  0  0  0  0
   -5.7191    0.5974   -1.3944 C   0  0  0  0  0  0  0  0  0  0  0  0
   -7.1103    0.7502   -1.5447 C   0  0  0  0  0  0  0  0  0  0  0  0
   -7.9920    0.1849   -0.6144 C   0  0  0  0  0  0  0  0  0  0  0  0
   -9.3811    0.5009   -0.6521 N   0  0  0  0  0  0  0  0  0  0  0  0
  -10.0313    1.3142   -1.5571 C   0  0  0  0  0  0  0  0  0  0  0  0
  -11.3319    1.4102   -1.1233 C   0  0  0  0  0  0  0  0  0  0  0  0
  -11.5232    0.6611   -0.0007 N   0  0  0  0  0  0  0  0  0  0  0  0
  -10.3494    0.1260    0.2560 C   0  0  0  0  0  0  0  0  0  0  0  0
   -7.4694   -0.6279    0.3965 C   0  0  0  0  0  0  0  0  0  0  0  0
   -6.0835   -0.7955    0.5165 C   0  0  0  0  0  0  0  0  0  0  0  0
   -5.1938   -0.1634   -0.3367 C   0  0  0  0  0  0  0  0  0  0  0  0
   -3.8742   -0.2696   -0.1121 N   0  0  0  0  0  0  0  0  0  0  0  0
   -0.5218    0.5334   -1.4298 C   0  0  0  0  0  0  0  0  0  0  0  0
    0.8185    0.4271   -1.0382 C   0  0  0  0  0  0  0  0  0  0  0  0
    2.1801   -0.0118    0.5716 H   0  0  0  0  0  0  0  0  0  0  0  0
    0.3633   -0.4383    2.2109 H   0  0  0  0  0  0  0  0  0  0  0  0
   -1.9900   -0.2447    1.5327 H   0  0  0  0  0  0  0  0  0  0  0  0
   -2.7634    1.6904   -2.6367 H   0  0  0  0  0  0  0  0  0  0  0  0
   -5.1649    1.8261   -3.0902 H   0  0  0  0  0  0  0  0  0  0  0  0
   -7.4685    1.3620   -2.3670 H   0  0  0  0  0  0  0  0  0  0  0  0
   -9.5448    1.7722   -2.4047 H   0  0  0  0  0  0  0  0  0  0  0  0
  -12.1363    1.9847   -1.5637 H   0  0  0  0  0  0  0  0  0  0  0  0
  -10.1535   -0.5175    1.1016 H   0  0  0  0  0  0  0  0  0  0  0  0
   -8.0943   -1.1280    1.1303 H   0  0  0  0  0  0  0  0  0  0  0  0
   -5.6868   -1.4070    1.3244 H   0  0  0  0  0  0  0  0  0  0  0  0
   -0.7244    0.7945   -2.4654 H   0  0  0  0  0  0  0  0  0  0  0  0
    1.6089    0.6136   -1.7596 H   0  0  0  0  0  0  0  0  0  0  0  0
  1  2  1  0  0  0  0
  1 21  2  0  0  0  0
  1 22  1  0  0  0  0
  2  3  2  0  0  0  0
  2 23  1  0  0  0  0
  3  4  1  0  0  0  0
  3 24  1  0  0  0  0
  4  5  1  0  0  0  0
  4 20  2  0  0  0  0
  5  6  1  0  0  0  0
  5 19  2  0  0  0  0
  6  7  2  0  0  0  0
  6 25  1  0  0  0  0
  7  8  1  0  0  0  0
  7 26  1  0  0  0  0
  8  9  1  0  0  0  0
  8 18  2  0  0  0  0
  9 10  2  0  0  0  0
  9 27  1  0  0  0  0
 10 11  1  0  0  0  0
 10 16  1  0  0  0  0
 11 12  1  0  0  0  0
 11 15  1  0  0  0  0
 12 13  2  0  0  0  0
 12 28  1  0  0  0  0
 13 14  1  0  0  0  0
 13 29  1  0  0  0  0
 14 15  2  0  0  0  0
 15 30  1  0  0  0  0
 16 17  2  0  0  0  0
 16 31  1  0  0  0  0
 17 18  1  0  0  0  0
 17 32  1  0  0  0  0
 18 19  1  0  0  0  0
 20 21  1  0  0  0  0
 20 33  1  0  0  0  0
 21 34  1  0  0  0  0
M  END
>  <Energy>
79.6039

$$$$

 OpenBabel04232614443D

 32 33  0  0  0  0  0  0  0  0999 V2000
    1.0671   -0.2000    2.9734 N   0  0  0  0  0  0  0  0  0  0  0  0
    2.1425    0.0784    3.3099 C   0  0  0  0  0  0  0  0  0  0  0  0
    3.7148    0.4871    3.7633 S   0  0  0  0  0  0  0  0  0  0  0  0
    4.5115    0.1707    2.1551 C   0  0  0  0  0  0  0  0  0  0  0  0
    6.0124    0.4411    2.2187 C   0  0  0  0  0  0  0  0  0  0  0  0
    6.6392   -0.5234    3.0673 O   0  0  0  0  0  0  0  0  0  0  0  0
    7.9861   -0.3832    3.2609 C   0  0  0  0  0  0  0  0  0  0  0  0
    8.8175    0.5007    2.5731 C   0  0  0  0  0  0  0  0  0  0  0  0
   10.1869    0.5400    2.8512 C   0  0  0  0  0  0  0  0  0  0  0  0
   10.7260   -0.2613    3.8604 C   0  0  0  0  0  0  0  0  0  0  0  0
   12.0542   -0.2653    4.2233 O   0  0  0  0  0  0  0  0  0  0  0  0
   12.7937    0.8917    4.1206 C   0  0  0  0  0  0  0  0  0  0  0  0
   12.2931    2.1689    4.3932 C   0  0  0  0  0  0  0  0  0  0  0  0
   13.1101    3.2888    4.2312 C   0  0  0  0  0  0  0  0  0  0  0  0
   14.4427    3.1319    3.8538 C   0  0  0  0  0  0  0  0  0  0  0  0
   14.9626    1.8543    3.6454 C   0  0  0  0  0  0  0  0  0  0  0  0
   14.1384    0.7357    3.7794 C   0  0  0  0  0  0  0  0  0  0  0  0
    9.9030   -1.1722    4.5233 C   0  0  0  0  0  0  0  0  0  0  0  0
    8.5395   -1.2318    4.2227 C   0  0  0  0  0  0  0  0  0  0  0  0
    4.0579    0.8257    1.4031 H   0  0  0  0  0  0  0  0  0  0  0  0
    4.3321   -0.8714    1.8694 H   0  0  0  0  0  0  0  0  0  0  0  0
    6.1998    1.4601    2.5810 H   0  0  0  0  0  0  0  0  0  0  0  0
    6.4129    0.3386    1.2026 H   0  0  0  0  0  0  0  0  0  0  0  0
    8.4402    1.1714    1.8093 H   0  0  0  0  0  0  0  0  0  0  0  0
   10.8164    1.2137    2.2764 H   0  0  0  0  0  0  0  0  0  0  0  0
   11.2662    2.3072    4.7175 H   0  0  0  0  0  0  0  0  0  0  0  0
   12.7055    4.2828    4.4019 H   0  0  0  0  0  0  0  0  0  0  0  0
   15.0795    4.0046    3.7326 H   0  0  0  0  0  0  0  0  0  0  0  0
   16.0082    1.7297    3.3774 H   0  0  0  0  0  0  0  0  0  0  0  0
   14.5447   -0.2590    3.6145 H   0  0  0  0  0  0  0  0  0  0  0  0
   10.3211   -1.8345    5.2767 H   0  0  0  0  0  0  0  0  0  0  0  0
    7.9041   -1.9407    4.7482 H   0  0  0  0  0  0  0  0  0  0  0  0
  1  2  3  0  0  0  0
  2  3  1  0  0  0  0
  3  4  1  0  0  0  0
  4  5  1  0  0  0  0
  4 20  1  0  0  0  0
  4 21  1  0  0  0  0
  5  6  1  0  0  0  0
  5 22  1  0  0  0  0
  5 23  1  0  0  0  0
  6  7  1  0  0  0  0
  7  8  1  0  0  0  0
  7 19  2  0  0  0  0
  8  9  2  0  0  0  0
  8 24  1  0  0  0  0
  9 10  1  0  0  0  0
  9 25  1  0  0  0  0
 10 11  1  0  0  0  0
 10 18  2  0  0  0  0
 11 12  1  0  0  0  0
 12 13  1  0  0  0  0
 12 17  2  0  0  0  0
 13 14  2  0  0  0  0
 13 26  1  0  0  0  0
 14 15  1  0  0  0  0
 14 27  1  0  0  0  0
 15 16  2  0  0  0  0
 15 28  1  0  0  0  0
 16 17  1  0  0  0  0
 16 29  1  0  0  0  0
 17 30  1  0  0  0  0
 18 19  1  0  0  0  0
 18 31  1  0  0  0  0
 19 32  1  0  0  0  0
M  END
>  <Energy>
43.1288

$$$$

 OpenBabel04232614443D

 30 32  0  0  0  0  0  0  0  0999 V2000
   -2.0935   -0.3062   -0.0999 Cl  0  0  0  0  0  0  0  0  0  0  0  0
   -0.3790   -0.1713   -0.0775 C   0  0  0  0  0  0  0  0  0  0  0  0
    0.2335    0.7293    0.7889 C   0  0  0  0  0  0  0  0  0  0  0  0
    1.6288    0.8236    0.8194 C   0  0  0  0  0  0  0  0  0  0  0  0
    2.4260    0.0226   -0.0156 C   0  0  0  0  0  0  0  0  0  0  0  0
    3.8795    0.1156    0.0789 C   0  0  0  0  0  0  0  0  0  0  0  0
    4.6239    0.8070    0.9177 N   0  0  0  0  0  0  0  0  0  0  0  0
    5.8994    0.4257    0.5649 C   0  0  0  0  0  0  0  0  0  0  0  0
    7.0926    0.8121    1.3592 C   0  0  0  0  0  0  0  0  0  0  0  0
    7.7026    2.0371    0.7241 C   0  0  0  0  0  0  0  0  0  0  0  0
    7.3079    3.3247    1.1185 C   0  0  0  0  0  0  0  0  0  0  0  0
    7.9311    4.4545    0.5842 C   0  0  0  0  0  0  0  0  0  0  0  0
    8.9528    4.3113   -0.3537 C   0  0  0  0  0  0  0  0  0  0  0  0
    9.3428    3.0397   -0.7669 C   0  0  0  0  0  0  0  0  0  0  0  0
    8.7201    1.9087   -0.2352 C   0  0  0  0  0  0  0  0  0  0  0  0
    5.9578   -0.4646   -0.4370 N   0  0  0  0  0  0  0  0  0  0  0  0
    4.6160   -0.6597   -0.7720 O   0  0  0  0  0  0  0  0  0  0  0  0
    1.7880   -0.8704   -0.8912 C   0  0  0  0  0  0  0  0  0  0  0  0
    0.3913   -0.9689   -0.9208 C   0  0  0  0  0  0  0  0  0  0  0  0
   -0.3630    1.3544    1.4482 H   0  0  0  0  0  0  0  0  0  0  0  0
    2.0962    1.5258    1.5089 H   0  0  0  0  0  0  0  0  0  0  0  0
    7.8231   -0.0047    1.3921 H   0  0  0  0  0  0  0  0  0  0  0  0
    6.8126    1.0224    2.3979 H   0  0  0  0  0  0  0  0  0  0  0  0
    6.5194    3.4558    1.8573 H   0  0  0  0  0  0  0  0  0  0  0  0
    7.6269    5.4473    0.9057 H   0  0  0  0  0  0  0  0  0  0  0  0
    9.4450    5.1906   -0.7614 H   0  0  0  0  0  0  0  0  0  0  0  0
   10.1394    2.9265   -1.4983 H   0  0  0  0  0  0  0  0  0  0  0  0
    9.0429    0.9232   -0.5647 H   0  0  0  0  0  0  0  0  0  0  0  0
    2.3671   -1.5113   -1.5539 H   0  0  0  0  0  0  0  0  0  0  0  0
   -0.0861   -1.6741   -1.5969 H   0  0  0  0  0  0  0  0  0  0  0  0
  1  2  1  0  0  0  0
  2  3  1  0  0  0  0
  2 19  2  0  0  0  0
  3  4  2  0  0  0  0
  3 20  1  0  0  0  0
  4  5  1  0  0  0  0
  4 21  1  0  0  0  0
  5  6  1  0  0  0  0
  5 18  2  0  0  0  0
  6  7  2  0  0  0  0
  6 17  1  0  0  0  0
  7  8  1  0  0  0  0
  8  9  1  0  0  0  0
  8 16  2  0  0  0  0
  9 10  1  0  0  0  0
  9 22  1  0  0  0  0
  9 23  1  0  0  0  0
 10 11  1  0  0  0  0
 10 15  2  0  0  0  0
 11 12  2  0  0  0  0
 11 24  1  0  0  0  0
 12 13  1  0  0  0  0
 12 25  1  0  0  0  0
 13 14  2  0  0  0  0
 13 26  1  0  0  0  0
 14 15  1  0  0  0  0
 14 27  1  0  0  0  0
 15 28  1  0  0  0  0
 16 17  1  0  0  0  0
 18 19  1  0  0  0  0
 18 29  1  0  0  0  0
 19 30  1  0  0  0  0
M  END
>  <Energy>
74.352

$$$$

 OpenBabel04232614443D

 35 37  0  0  0  0  0  0  0  0999 V2000
    4.6890   -2.4614    0.1894 C   0  0  0  0  0  0  0  0  0  0  0  0
    4.4926   -1.0916   -0.1359 O   0  0  0  0  0  0  0  0  0  0  0  0
    3.7575   -0.3266    0.7402 C   0  0  0  0  0  0  0  0  0  0  0  0
    3.3934   -0.7412    2.0262 C   0  0  0  0  0  0  0  0  0  0  0  0
    2.6765    0.1166    2.8640 C   0  0  0  0  0  0  0  0  0  0  0  0
    2.3270    1.3906    2.4251 C   0  0  0  0  0  0  0  0  0  0  0  0
    2.6825    1.8087    1.1394 C   0  0  0  0  0  0  0  0  0  0  0  0
    3.3969    0.9613    0.2782 C   0  0  0  0  0  0  0  0  0  0  0  0
    3.7382    1.3081   -1.0501 N   0  0  0  0  0  0  0  0  0  0  0  0
    3.8531    2.5344   -1.2734 N   0  0  0  0  0  0  0  0  0  0  0  0
    4.3790    2.7118   -2.5829 C   0  0  0  0  0  0  0  0  0  0  0  0
    5.6823    2.2555   -2.8695 C   0  0  0  0  0  0  0  0  0  0  0  0
    6.4556    1.6713   -1.8955 O   0  0  0  0  0  0  0  0  0  0  0  0
    6.2362    2.3570   -4.1337 C   0  0  0  0  0  0  0  0  0  0  0  0
    5.4851    2.9206   -5.1596 C   0  0  0  0  0  0  0  0  0  0  0  0
    4.1978    3.4240   -4.9167 C   0  0  0  0  0  0  0  0  0  0  0  0
    3.4671    4.0071   -5.9643 C   0  0  0  0  0  0  0  0  0  0  0  0
    2.2045    4.5521   -5.7405 C   0  0  0  0  0  0  0  0  0  0  0  0
    1.6545    4.5173   -4.4645 C   0  0  0  0  0  0  0  0  0  0  0  0
    2.3558    3.9136   -3.4155 C   0  0  0  0  0  0  0  0  0  0  0  0
    3.6357    3.3479   -3.6130 C   0  0  0  0  0  0  0  0  0  0  0  0
    5.2555   -2.9207   -0.6268 H   0  0  0  0  0  0  0  0  0  0  0  0
    3.7315   -2.9867    0.2694 H   0  0  0  0  0  0  0  0  0  0  0  0
    5.2812   -2.5751    1.1031 H   0  0  0  0  0  0  0  0  0  0  0  0
    3.6566   -1.7197    2.4103 H   0  0  0  0  0  0  0  0  0  0  0  0
    2.3954   -0.2113    3.8617 H   0  0  0  0  0  0  0  0  0  0  0  0
    1.7734    2.0583    3.0794 H   0  0  0  0  0  0  0  0  0  0  0  0
    2.3909    2.8024    0.8093 H   0  0  0  0  0  0  0  0  0  0  0  0
    5.8540    1.5154   -1.1397 H   0  0  0  0  0  0  0  0  0  0  0  0
    7.2385    1.9833   -4.3224 H   0  0  0  0  0  0  0  0  0  0  0  0
    5.9210    2.9747   -6.1549 H   0  0  0  0  0  0  0  0  0  0  0  0
    3.8815    4.0451   -6.9701 H   0  0  0  0  0  0  0  0  0  0  0  0
    1.6566    5.0073   -6.5616 H   0  0  0  0  0  0  0  0  0  0  0  0
    0.6771    4.9577   -4.2840 H   0  0  0  0  0  0  0  0  0  0  0  0
    1.8979    3.8959   -2.4287 H   0  0  0  0  0  0  0  0  0  0  0  0
  1  2  1  0  0  0  0
  1 22  1  0  0  0  0
  1 23  1  0  0  0  0
  1 24  1  0  0  0  0
  2  3  1  0  0  0  0
  3  4  1  0  0  0  0
  3  8  2  0  0  0  0
  4  5  2  0  0  0  0
  4 25  1  0  0  0  0
  5  6  1  0  0  0  0
  5 26  1  0  0  0  0
  6  7  2  0  0  0  0
  6 27  1  0  0  0  0
  7  8  1  0  0  0  0
  7 28  1  0  0  0  0
  8  9  1  0  0  0  0
  9 10  2  0  0  0  0
 10 11  1  0  0  0  0
 11 12  1  0  0  0  0
 11 21  2  0  0  0  0
 12 13  1  0  0  0  0
 12 14  2  0  0  0  0
 13 29  1  0  0  0  0
 14 15  1  0  0  0  0
 14 30  1  0  0  0  0
 15 16  2  0  0  0  0
 15 31  1  0  0  0  0
 16 17  1  0  0  0  0
 16 21  1  0  0  0  0
 17 18  2  0  0  0  0
 17 32  1  0  0  0  0
 18 19  1  0  0  0  0
 18 33  1  0  0  0  0
 19 20  2  0  0  0  0
 19 34  1  0  0  0  0
 20 21  1  0  0  0  0
 20 35  1  0  0  0  0
M  END
>  <Energy>
86.2633

$$$$

 OpenBabel04232614443D

 37 38  0  0  0  0  0  0  0  0999 V2000
    2.5426    1.4524    0.4009 C   0  0  0  0  0  0  0  0  0  0  0  0
    2.4568   -0.0381   -0.0002 C   0  0  0  0  0  0  0  0  0  0  0  0
    3.2554   -0.8389    1.0510 C   0  0  0  0  0  0  0  0  0  0  0  0
    0.9702   -0.4473    0.0829 C   0  0  0  0  0  0  0  0  0  0  0  0
    3.0089   -0.3279   -1.4092 C   0  0  0  0  0  0  0  0  0  0  0  0
    3.5307    0.6741   -2.2399 C   0  0  0  0  0  0  0  0  0  0  0  0
    4.0277    0.3851   -3.5199 C   0  0  0  0  0  0  0  0  0  0  0  0
    4.0297   -0.9197   -4.0086 C   0  0  0  0  0  0  0  0  0  0  0  0
    4.5980   -1.3628   -5.6430 S   0  0  0  0  0  0  0  0  0  0  0  0
    6.0098   -0.2223   -5.8905 C   0  0  0  0  0  0  0  0  0  0  0  0
    6.7435   -0.4821   -7.1886 C   0  0  0  0  0  0  0  0  0  0  0  0
    7.4082   -1.6888   -7.4083 C   0  0  0  0  0  0  0  0  0  0  0  0
    8.0722   -1.8858   -8.6165 C   0  0  0  0  0  0  0  0  0  0  0  0
    8.0683   -0.8749   -9.5690 C   0  0  0  0  0  0  0  0  0  0  0  0
    7.3997    0.2994   -9.2705 C   0  0  0  0  0  0  0  0  0  0  0  0
    6.7452    0.5181   -8.1086 N   0  0  0  0  0  0  0  0  0  0  0  0
    3.5010   -1.9277   -3.1990 C   0  0  0  0  0  0  0  0  0  0  0  0
    3.0022   -1.6385   -1.9207 C   0  0  0  0  0  0  0  0  0  0  0  0
    2.1517    1.6140    1.4124 H   0  0  0  0  0  0  0  0  0  0  0  0
    1.9571    2.0858   -0.2759 H   0  0  0  0  0  0  0  0  0  0  0  0
    3.5783    1.8124    0.3941 H   0  0  0  0  0  0  0  0  0  0  0  0
    2.8710   -0.6546    2.0613 H   0  0  0  0  0  0  0  0  0  0  0  0
    4.3147   -0.5558    1.0418 H   0  0  0  0  0  0  0  0  0  0  0  0
    3.2010   -1.9196    0.8802 H   0  0  0  0  0  0  0  0  0  0  0  0
    0.5672   -0.2606    1.0860 H   0  0  0  0  0  0  0  0  0  0  0  0
    0.8183   -1.5110   -0.1292 H   0  0  0  0  0  0  0  0  0  0  0  0
    0.3623    0.1218   -0.6297 H   0  0  0  0  0  0  0  0  0  0  0  0
    3.5575    1.7142   -1.9253 H   0  0  0  0  0  0  0  0  0  0  0  0
    4.3857    1.2135   -4.1236 H   0  0  0  0  0  0  0  0  0  0  0  0
    6.7153   -0.3146   -5.0574 H   0  0  0  0  0  0  0  0  0  0  0  0
    5.6364    0.8067   -5.9056 H   0  0  0  0  0  0  0  0  0  0  0  0
    7.4023   -2.4723   -6.6565 H   0  0  0  0  0  0  0  0  0  0  0  0
    8.5840   -2.8231   -8.8134 H   0  0  0  0  0  0  0  0  0  0  0  0
    8.5724   -0.9988  -10.5205 H   0  0  0  0  0  0  0  0  0  0  0  0
    7.3689    1.1205   -9.9805 H   0  0  0  0  0  0  0  0  0  0  0  0
    3.4647   -2.9555   -3.5545 H   0  0  0  0  0  0  0  0  0  0  0  0
    2.6005   -2.4612   -1.3333 H   0  0  0  0  0  0  0  0  0  0  0  0
  1  2  1  0  0  0  0
  1 19  1  0  0  0  0
  1 20  1  0  0  0  0
  1 21  1  0  0  0  0
  2  3  1  0  0  0  0
  2  4  1  0  0  0  0
  2  5  1  0  0  0  0
  3 22  1  0  0  0  0
  3 23  1  0  0  0  0
  3 24  1  0  0  0  0
  4 25  1  0  0  0  0
  4 26  1  0  0  0  0
  4 27  1  0  0  0  0
  5  6  1  0  0  0  0
  5 18  2  0  0  0  0
  6  7  2  0  0  0  0
  6 28  1  0  0  0  0
  7  8  1  0  0  0  0
  7 29  1  0  0  0  0
  8  9  1  0  0  0  0
  8 17  2  0  0  0  0
  9 10  1  0  0  0  0
 10 11  1  0  0  0  0
 10 30  1  0  0  0  0
 10 31  1  0  0  0  0
 11 12  1  0  0  0  0
 11 16  2  0  0  0  0
 12 13  2  0  0  0  0
 12 32  1  0  0  0  0
 13 14  1  0  0  0  0
 13 33  1  0  0  0  0
 14 15  2  0  0  0  0
 14 34  1  0  0  0  0
 15 16  1  0  0  0  0
 15 35  1  0  0  0  0
 17 18  1  0  0  0  0
 17 36  1  0  0  0  0
 18 37  1  0  0  0  0
M  END
>  <Energy>
65.0774

$$$$

 OpenBabel04232614443D

 36 39  0  0  0  0  0  0  0  0999 V2000
    1.0769   -0.5244   -0.1574 C   0  0  0  0  0  0  0  0  0  0  0  0
    2.5134   -0.0774    0.0702 C   0  0  0  0  0  0  0  0  0  0  0  0
    2.9610    0.8821   -1.0013 C   0  0  0  0  0  0  0  0  0  0  0  0
    3.5992    0.4270   -2.1574 C   0  0  0  0  0  0  0  0  0  0  0  0
    3.9429    1.3274   -3.1735 C   0  0  0  0  0  0  0  0  0  0  0  0
    3.6578    2.6841   -3.0800 C   0  0  0  0  0  0  0  0  0  0  0  0
    3.9661    3.5096   -4.0988 N   0  0  0  0  0  0  0  0  0  0  0  0
    3.6424    4.8251   -4.0047 C   0  0  0  0  0  0  0  0  0  0  0  0
    3.9227    5.6491   -5.1992 C   0  0  0  0  0  0  0  0  0  0  0  0
    5.0275    5.3621   -6.0430 C   0  0  0  0  0  0  0  0  0  0  0  0
    5.3012    6.1215   -7.1893 C   0  0  0  0  0  0  0  0  0  0  0  0
    4.4549    7.1658   -7.4816 C   0  0  0  0  0  0  0  0  0  0  0  0
    3.3781    7.4605   -6.6843 C   0  0  0  0  0  0  0  0  0  0  0  0
    3.0866    6.7284   -5.5517 C   0  0  0  0  0  0  0  0  0  0  0  0
    2.6615    8.5208   -7.1439 O   0  0  0  0  0  0  0  0  0  0  0  0
    3.4162    8.8627   -8.3247 C   0  0  0  0  0  0  0  0  0  0  0  0
    4.5541    8.0037   -8.5476 O   0  0  0  0  0  0  0  0  0  0  0  0
    3.0493    5.3513   -2.8592 C   0  0  0  0  0  0  0  0  0  0  0  0
    2.7383    4.5026   -1.8053 C   0  0  0  0  0  0  0  0  0  0  0  0
    3.0274    3.1417   -1.9069 C   0  0  0  0  0  0  0  0  0  0  0  0
    2.6865    2.2478   -0.8801 C   0  0  0  0  0  0  0  0  0  0  0  0
    0.7588   -1.2041    0.6394 H   0  0  0  0  0  0  0  0  0  0  0  0
    0.9724   -1.0482   -1.1137 H   0  0  0  0  0  0  0  0  0  0  0  0
    0.3908    0.3292   -0.1677 H   0  0  0  0  0  0  0  0  0  0  0  0
    3.1779   -0.9498    0.0950 H   0  0  0  0  0  0  0  0  0  0  0  0
    2.6017    0.4021    1.0530 H   0  0  0  0  0  0  0  0  0  0  0  0
    3.8217   -0.6294   -2.2869 H   0  0  0  0  0  0  0  0  0  0  0  0
    4.4292    0.9570   -4.0726 H   0  0  0  0  0  0  0  0  0  0  0  0
    5.6830    4.5268   -5.7979 H   0  0  0  0  0  0  0  0  0  0  0  0
    6.1472    5.8895   -7.8259 H   0  0  0  0  0  0  0  0  0  0  0  0
    2.2069    6.9853   -4.9712 H   0  0  0  0  0  0  0  0  0  0  0  0
    3.7702    9.8950   -8.2254 H   0  0  0  0  0  0  0  0  0  0  0  0
    2.7514    8.8008   -9.1942 H   0  0  0  0  0  0  0  0  0  0  0  0
    2.8202    6.4085   -2.7774 H   0  0  0  0  0  0  0  0  0  0  0  0
    2.2591    4.9078   -0.9173 H   0  0  0  0  0  0  0  0  0  0  0  0
    2.1821    2.6147    0.0126 H   0  0  0  0  0  0  0  0  0  0  0  0
  1  2  1  0  0  0  0
  1 22  1  0  0  0  0
  1 23  1  0  0  0  0
  1 24  1  0  0  0  0
  2  3  1  0  0  0  0
  2 25  1  0  0  0  0
  2 26  1  0  0  0  0
  3  4  1  0  0  0  0
  3 21  2  0  0  0  0
  4  5  2  0  0  0  0
  4 27  1  0  0  0  0
  5  6  1  0  0  0  0
  5 28  1  0  0  0  0
  6  7  1  0  0  0  0
  6 20  2  0  0  0  0
  7  8  2  0  0  0  0
  8  9  1  0  0  0  0
  8 18  1  0  0  0  0
  9 10  1  0  0  0  0
  9 14  2  0  0  0  0
 10 11  2  0  0  0  0
 10 29  1  0  0  0  0
 11 12  1  0  0  0  0
 11 30  1  0  0  0  0
 12 13  2  0  0  0  0
 12 17  1  0  0  0  0
 13 14  1  0  0  0  0
 13 15  1  0  0  0  0
 14 31  1  0  0  0  0
 15 16  1  0  0  0  0
 16 17  1  0  0  0  0
 16 32  1  0  0  0  0
 16 33  1  0  0  0  0
 18 19  2  0  0  0  0
 18 34  1  0  0  0  0
 19 20  1  0  0  0  0
 19 35  1  0  0  0  0
 20 21  1  0  0  0  0
 21 36  1  0  0  0  0
M  END
>  <Energy>
58.5304

$$$$

 OpenBabel04232614443D

 36 38  0  0  0  0  0  0  0  0999 V2000
    4.8898   -2.1403    1.3669 C   0  0  0  0  0  0  0  0  0  0  0  0
    4.2584   -1.0193    0.5999 C   0  0  0  0  0  0  0  0  0  0  0  0
    3.1010   -1.1522   -0.0734 C   0  0  0  0  0  0  0  0  0  0  0  0
    2.5334    0.0028   -0.8207 C   0  0  0  0  0  0  0  0  0  0  0  0
    1.4822   -0.1046   -1.4506 O   0  0  0  0  0  0  0  0  0  0  0  0
    3.2684    1.1630   -0.7529 N   0  0  0  0  0  0  0  0  0  0  0  0
    2.7772    2.2849   -1.4545 O   0  0  0  0  0  0  0  0  0  0  0  0
    4.4492    1.3099   -0.0678 C   0  0  0  0  0  0  0  0  0  0  0  0
    5.1742    2.5835   -0.0589 C   0  0  0  0  0  0  0  0  0  0  0  0
    6.1343    2.8491   -1.0360 C   0  0  0  0  0  0  0  0  0  0  0  0
    6.9309    3.9942   -0.9453 C   0  0  0  0  0  0  0  0  0  0  0  0
    6.7822    4.9145    0.1096 C   0  0  0  0  0  0  0  0  0  0  0  0
    7.7125    6.0587    0.2682 C   0  0  0  0  0  0  0  0  0  0  0  0
    8.3328    6.6698   -0.8367 C   0  0  0  0  0  0  0  0  0  0  0  0
    9.2896    7.6765   -0.6740 C   0  0  0  0  0  0  0  0  0  0  0  0
    9.6272    8.1194    0.6005 C   0  0  0  0  0  0  0  0  0  0  0  0
    9.0033    7.5615    1.7104 C   0  0  0  0  0  0  0  0  0  0  0  0
    8.0646    6.5397    1.5444 C   0  0  0  0  0  0  0  0  0  0  0  0
    5.7576    4.6620    1.0406 C   0  0  0  0  0  0  0  0  0  0  0  0
    4.9739    3.5057    0.9698 C   0  0  0  0  0  0  0  0  0  0  0  0
    4.9543    0.2567    0.5987 C   0  0  0  0  0  0  0  0  0  0  0  0
    4.2894   -3.0549    1.3179 H   0  0  0  0  0  0  0  0  0  0  0  0
    4.9992   -1.8708    2.4228 H   0  0  0  0  0  0  0  0  0  0  0  0
    5.8816   -2.3715    0.9633 H   0  0  0  0  0  0  0  0  0  0  0  0
    2.5354   -2.0741   -0.1132 H   0  0  0  0  0  0  0  0  0  0  0  0
    1.9677    1.9171   -1.8643 H   0  0  0  0  0  0  0  0  0  0  0  0
    6.2883    2.1548   -1.8585 H   0  0  0  0  0  0  0  0  0  0  0  0
    7.7028    4.1311   -1.6987 H   0  0  0  0  0  0  0  0  0  0  0  0
    8.0846    6.3626   -1.8506 H   0  0  0  0  0  0  0  0  0  0  0  0
    9.7732    8.1082   -1.5463 H   0  0  0  0  0  0  0  0  0  0  0  0
   10.3766    8.8951    0.7287 H   0  0  0  0  0  0  0  0  0  0  0  0
    9.2556    7.9062    2.7096 H   0  0  0  0  0  0  0  0  0  0  0  0
    7.6307    6.1022    2.4405 H   0  0  0  0  0  0  0  0  0  0  0  0
    5.5646    5.3575    1.8541 H   0  0  0  0  0  0  0  0  0  0  0  0
    4.2195    3.3246    1.7319 H   0  0  0  0  0  0  0  0  0  0  0  0
    5.8911    0.3357    1.1480 H   0  0  0  0  0  0  0  0  0  0  0  0
  1  2  1  0  0  0  0
  1 22  1  0  0  0  0
  1 23  1  0  0  0  0
  1 24  1  0  0  0  0
  2  3  2  0  0  0  0
  2 21  1  0  0  0  0
  3  4  1  0  0  0  0
  3 25  1  0  0  0  0
  4  5  2  0  0  0  0
  4  6  1  0  0  0  0
  6  7  1  0  0  0  0
  6  8  1  0  0  0  0
  7 26  1  0  0  0  0
  8  9  1  0  0  0  0
  8 21  2  0  0  0  0
  9 10  1  0  0  0  0
  9 20  2  0  0  0  0
 10 11  2  0  0  0  0
 10 27  1  0  0  0  0
 11 12  1  0  0  0  0
 11 28  1  0  0  0  0
 12 13  1  0  0  0  0
 12 19  2  0  0  0  0
 13 14  1  0  0  0  0
 13 18  2  0  0  0  0
 14 15  2  0  0  0  0
 14 29  1  0  0  0  0
 15 16  1  0  0  0  0
 15 30  1  0  0  0  0
 16 17  2  0  0  0  0
 16 31  1  0  0  0  0
 17 18  1  0  0  0  0
 17 32  1  0  0  0  0
 18 33  1  0  0  0  0
 19 20  1  0  0  0  0
 19 34  1  0  0  0  0
 20 35  1  0  0  0  0
 21 36  1  0  0  0  0
M  END
>  <Energy>
85.4585

$$$$

 OpenBabel04232614443D

 33 33  0  0  0  0  0  0  0  0999 V2000
    0.9556   -0.6970   -0.4402 C   0  0  0  0  0  0  0  0  0  0  0  0
    2.4667   -0.7478   -0.4072 C   0  0  0  0  0  0  0  0  0  0  0  0
    2.9974    0.2770   -1.2400 O   0  0  0  0  0  0  0  0  0  0  0  0
    4.7274    0.2770   -1.2400 P   0  0  0  0  0  0  0  0  0  0  0  0
    4.6652   -0.7535   -2.3913 O   0  0  0  0  0  0  0  0  0  0  0  0
    4.6816    1.8033   -1.8938 O   0  0  0  0  0  0  0  0  0  0  0  0
    4.1515    2.8341   -1.0708 C   0  0  0  0  0  0  0  0  0  0  0  0
    4.2291    4.1564   -1.8049 C   0  0  0  0  0  0  0  0  0  0  0  0
    6.5574    0.2770   -1.2400 C   0  0  0  0  0  0  0  0  0  0  0  0
    7.1235    0.2812   -0.0060 F   0  0  0  0  0  0  0  0  0  0  0  0
    7.3325    0.2708   -2.3390 C   0  0  0  0  0  0  0  0  0  0  0  0
    8.7998    0.2076   -2.3658 C   0  0  0  0  0  0  0  0  0  0  0  0
    9.5452   -0.4672   -1.3892 C   0  0  0  0  0  0  0  0  0  0  0  0
   10.9360   -0.5532   -1.4833 C   0  0  0  0  0  0  0  0  0  0  0  0
   11.5996    0.0216   -2.5667 C   0  0  0  0  0  0  0  0  0  0  0  0
   10.8698    0.6781   -3.5548 C   0  0  0  0  0  0  0  0  0  0  0  0
    9.4781    0.7671   -3.4584 C   0  0  0  0  0  0  0  0  0  0  0  0
    0.5292   -1.4607    0.2164 H   0  0  0  0  0  0  0  0  0  0  0  0
    0.5870   -0.8614   -1.4579 H   0  0  0  0  0  0  0  0  0  0  0  0
    0.5936    0.2858   -0.1214 H   0  0  0  0  0  0  0  0  0  0  0  0
    2.8189   -1.7242   -0.7542 H   0  0  0  0  0  0  0  0  0  0  0  0
    2.8261   -0.5891    0.6152 H   0  0  0  0  0  0  0  0  0  0  0  0
    4.7111    2.8783   -0.1321 H   0  0  0  0  0  0  0  0  0  0  0  0
    3.1013    2.6243   -0.8405 H   0  0  0  0  0  0  0  0  0  0  0  0
    5.2700    4.4193   -2.0187 H   0  0  0  0  0  0  0  0  0  0  0  0
    3.7778    4.9562   -1.2106 H   0  0  0  0  0  0  0  0  0  0  0  0
    3.7077    4.0972   -2.7660 H   0  0  0  0  0  0  0  0  0  0  0  0
    6.8402    0.2938   -3.3092 H   0  0  0  0  0  0  0  0  0  0  0  0
    9.0533   -0.9490   -0.5496 H   0  0  0  0  0  0  0  0  0  0  0  0
   11.4988   -1.0781   -0.7181 H   0  0  0  0  0  0  0  0  0  0  0  0
   12.6778   -0.0511   -2.6428 H   0  0  0  0  0  0  0  0  0  0  0  0
   11.3837    1.1165   -4.4083 H   0  0  0  0  0  0  0  0  0  0  0  0
    8.9293    1.2764   -4.2470 H   0  0  0  0  0  0  0  0  0  0  0  0
  1  2  1  0  0  0  0
  1 18  1  0  0  0  0
  1 19  1  0  0  0  0
  1 20  1  0  0  0  0
  2  3  1  0  0  0  0
  2 21  1  0  0  0  0
  2 22  1  0  0  0  0
  3  4  1  0  0  0  0
  4  5  2  0  0  0  0
  4  6  1  0  0  0  0
  4  9  1  0  0  0  0
  6  7  1  0  0  0  0
  7  8  1  0  0  0  0
  7 23  1  0  0  0  0
  7 24  1  0  0  0  0
  8 25  1  0  0  0  0
  8 26  1  0  0  0  0
  8 27  1  0  0  0  0
  9 10  1  0  0  0  0
  9 11  2  0  0  0  0
 11 12  1  0  0  0  0
 11 28  1  0  0  0  0
 12 13  1  0  0  0  0
 12 17  2  0  0  0  0
 13 14  2  0  0  0  0
 13 29  1  0  0  0  0
 14 15  1  0  0  0  0
 14 30  1  0  0  0  0
 15 16  2  0  0  0  0
 15 31  1  0  0  0  0
 16 17  1  0  0  0  0
 16 32  1  0  0  0  0
 17 33  1  0  0  0  0
M  END
>  <Energy>
549.619

$$$$

 OpenBabel04232614443D

 36 38  0  0  0  0  0  0  0  0999 V2000
    1.1822    0.4761   -0.1631 C   0  0  0  0  0  0  0  0  0  0  0  0
    2.5478    0.1381    0.0644 O   0  0  0  0  0  0  0  0  0  0  0  0
    3.0854   -0.7427   -0.8322 C   0  0  0  0  0  0  0  0  0  0  0  0
    4.1326   -1.5250   -0.3568 C   0  0  0  0  0  0  0  0  0  0  0  0
    4.7302   -2.4798   -1.1863 C   0  0  0  0  0  0  0  0  0  0  0  0
    4.3011   -2.6724   -2.4922 C   0  0  0  0  0  0  0  0  0  0  0  0
    4.8715   -3.6239   -3.2413 N   0  0  0  0  0  0  0  0  0  0  0  0
    4.4094   -3.8276   -4.5054 C   0  0  0  0  0  0  0  0  0  0  0  0
    5.1181   -4.9104   -5.2504 C   0  0  0  0  0  0  0  0  0  0  0  0
    5.3300   -4.8039   -6.4547 O   0  0  0  0  0  0  0  0  0  0  0  0
    5.5916   -6.1278   -4.5293 C   0  0  0  0  0  0  0  0  0  0  0  0
    6.7135   -6.8048   -5.0214 C   0  0  0  0  0  0  0  0  0  0  0  0
    7.1778   -7.9538   -4.3773 C   0  0  0  0  0  0  0  0  0  0  0  0
    6.5166   -8.4377   -3.2491 C   0  0  0  0  0  0  0  0  0  0  0  0
    5.3886   -7.7774   -2.7634 C   0  0  0  0  0  0  0  0  0  0  0  0
    4.9225   -6.6277   -3.4037 C   0  0  0  0  0  0  0  0  0  0  0  0
    3.3705   -3.0913   -5.0752 C   0  0  0  0  0  0  0  0  0  0  0  0
    2.8261   -3.3202   -6.4526 C   0  0  0  0  0  0  0  0  0  0  0  0
    2.8213   -2.0701   -4.2919 C   0  0  0  0  0  0  0  0  0  0  0  0
    3.2616   -1.8600   -2.9792 C   0  0  0  0  0  0  0  0  0  0  0  0
    2.6724   -0.8871   -2.1548 C   0  0  0  0  0  0  0  0  0  0  0  0
    0.8141    1.0001    0.7238 H   0  0  0  0  0  0  0  0  0  0  0  0
    0.5664   -0.4199   -0.3017 H   0  0  0  0  0  0  0  0  0  0  0  0
    1.0832    1.1548   -1.0160 H   0  0  0  0  0  0  0  0  0  0  0  0
    4.4770   -1.4105    0.6682 H   0  0  0  0  0  0  0  0  0  0  0  0
    5.5367   -3.0963   -0.7983 H   0  0  0  0  0  0  0  0  0  0  0  0
    7.2332   -6.4341   -5.9022 H   0  0  0  0  0  0  0  0  0  0  0  0
    8.0553   -8.4709   -4.7572 H   0  0  0  0  0  0  0  0  0  0  0  0
    6.8788   -9.3321   -2.7481 H   0  0  0  0  0  0  0  0  0  0  0  0
    4.8713   -8.1566   -1.8860 H   0  0  0  0  0  0  0  0  0  0  0  0
    4.0372   -6.1347   -3.0109 H   0  0  0  0  0  0  0  0  0  0  0  0
    2.8921   -4.3700   -6.7511 H   0  0  0  0  0  0  0  0  0  0  0  0
    3.3528   -2.6964   -7.1802 H   0  0  0  0  0  0  0  0  0  0  0  0
    1.7596   -3.0670   -6.4858 H   0  0  0  0  0  0  0  0  0  0  0  0
    2.0242   -1.4508   -4.7012 H   0  0  0  0  0  0  0  0  0  0  0  0
    1.8887   -0.2570   -2.5632 H   0  0  0  0  0  0  0  0  0  0  0  0
  1  2  1  0  0  0  0
  1 22  1  0  0  0  0
  1 23  1  0  0  0  0
  1 24  1  0  0  0  0
  2  3  1  0  0  0  0
  3  4  1  0  0  0  0
  3 21  2  0  0  0  0
  4  5  2  0  0  0  0
  4 25  1  0  0  0  0
  5  6  1  0  0  0  0
  5 26  1  0  0  0  0
  6  7  1  0  0  0  0
  6 20  2  0  0  0  0
  7  8  2  0  0  0  0
  8  9  1  0  0  0  0
  8 17  1  0  0  0  0
  9 10  2  0  0  0  0
  9 11  1  0  0  0  0
 11 12  1  0  0  0  0
 11 16  2  0  0  0  0
 12 13  2  0  0  0  0
 12 27  1  0  0  0  0
 13 14  1  0  0  0  0
 13 28  1  0  0  0  0
 14 15  2  0  0  0  0
 14 29  1  0  0  0  0
 15 16  1  0  0  0  0
 15 30  1  0  0  0  0
 16 31  1  0  0  0  0
 17 18  1  0  0  0  0
 17 19  2  0  0  0  0
 18 32  1  0  0  0  0
 18 33  1  0  0  0  0
 18 34  1  0  0  0  0
 19 20  1  0  0  0  0
 19 35  1  0  0  0  0
 20 21  1  0  0  0  0
 21 36  1  0  0  0  0
M  END
>  <Energy>
104.797

$$$$

 OpenBabel04232614443D

 34 36  0  0  0  0  0  0  0  0999 V2000
    1.4463    0.4113   -0.3583 C   0  0  0  0  0  0  0  0  0  0  0  0
    2.7290   -0.2831    0.0251 C   0  0  0  0  0  0  0  0  0  0  0  0
    3.2628   -0.0847    1.1141 O   0  0  0  0  0  0  0  0  0  0  0  0
    3.3467   -1.2366   -0.9443 C   0  0  0  0  0  0  0  0  0  0  0  0
    2.7808   -1.4768   -2.1967 C   0  0  0  0  0  0  0  0  0  0  0  0
    3.3649   -2.3993   -3.0713 C   0  0  0  0  0  0  0  0  0  0  0  0
    4.5210   -3.0974   -2.7172 C   0  0  0  0  0  0  0  0  0  0  0  0
    5.1388   -4.0519   -3.5522 N   0  0  0  0  0  0  0  0  0  0  0  0
    4.6760   -4.5262   -4.7701 C   0  0  0  0  0  0  0  0  0  0  0  0
    3.6169   -4.2007   -5.2997 O   0  0  0  0  0  0  0  0  0  0  0  0
    5.5591   -5.4879   -5.3997 C   0  0  0  0  0  0  0  0  0  0  0  0
    5.4012   -6.2015   -6.5732 C   0  0  0  0  0  0  0  0  0  0  0  0
    6.5661   -6.9878   -6.7403 C   0  0  0  0  0  0  0  0  0  0  0  0
    7.0252   -7.9072   -7.6989 C   0  0  0  0  0  0  0  0  0  0  0  0
    8.2840   -8.4957   -7.5149 C   0  0  0  0  0  0  0  0  0  0  0  0
    9.0711   -8.1781   -6.4047 C   0  0  0  0  0  0  0  0  0  0  0  0
    8.6293   -7.2667   -5.4383 C   0  0  0  0  0  0  0  0  0  0  0  0
    7.3743   -6.7005   -5.6466 C   0  0  0  0  0  0  0  0  0  0  0  0
    6.7648   -5.7972   -4.8256 O   0  0  0  0  0  0  0  0  0  0  0  0
    5.1021   -2.8368   -1.4710 C   0  0  0  0  0  0  0  0  0  0  0  0
    4.5184   -1.9153   -0.5885 C   0  0  0  0  0  0  0  0  0  0  0  0
    1.1187    1.0508    0.4667 H   0  0  0  0  0  0  0  0  0  0  0  0
    0.6593   -0.3240   -0.5476 H   0  0  0  0  0  0  0  0  0  0  0  0
    1.6058    1.0440   -1.2355 H   0  0  0  0  0  0  0  0  0  0  0  0
    1.8805   -0.9669   -2.5284 H   0  0  0  0  0  0  0  0  0  0  0  0
    2.8813   -2.5406   -4.0330 H   0  0  0  0  0  0  0  0  0  0  0  0
    6.0034   -4.4715   -3.2274 H   0  0  0  0  0  0  0  0  0  0  0  0
    4.5402   -6.1472   -7.2260 H   0  0  0  0  0  0  0  0  0  0  0  0
    6.4219   -8.1581   -8.5662 H   0  0  0  0  0  0  0  0  0  0  0  0
    8.6525   -9.2088   -8.2498 H   0  0  0  0  0  0  0  0  0  0  0  0
   10.0461   -8.6476   -6.2892 H   0  0  0  0  0  0  0  0  0  0  0  0
    9.2304   -7.0108   -4.5750 H   0  0  0  0  0  0  0  0  0  0  0  0
    6.0078   -3.3511   -1.1576 H   0  0  0  0  0  0  0  0  0  0  0  0
    4.9810   -1.7351    0.3806 H   0  0  0  0  0  0  0  0  0  0  0  0
  1  2  1  0  0  0  0
  1 22  1  0  0  0  0
  1 23  1  0  0  0  0
  1 24  1  0  0  0  0
  2  3  2  0  0  0  0
  2  4  1  0  0  0  0
  4  5  1  0  0  0  0
  4 21  2  0  0  0  0
  5  6  2  0  0  0  0
  5 25  1  0  0  0  0
  6  7  1  0  0  0  0
  6 26  1  0  0  0  0
  7  8  1  0  0  0  0
  7 20  2  0  0  0  0
  8  9  1  0  0  0  0
  8 27  1  0  0  0  0
  9 10  2  0  0  0  0
  9 11  1  0  0  0  0
 11 12  2  0  0  0  0
 11 19  1  0  0  0  0
 12 13  1  0  0  0  0
 12 28  1  0  0  0  0
 13 14  1  0  0  0  0
 13 18  2  0  0  0  0
 14 15  2  0  0  0  0
 14 29  1  0  0  0  0
 15 16  1  0  0  0  0
 15 30  1  0  0  0  0
 16 17  2  0  0  0  0
 16 31  1  0  0  0  0
 17 18  1  0  0  0  0
 17 32  1  0  0  0  0
 18 19  1  0  0  0  0
 20 21  1  0  0  0  0
 20 33  1  0  0  0  0
 21 34  1  0  0  0  0
M  END
>  <Energy>
43.8113

$$$$

 OpenBabel04232614443D

 38 40  0  0  1  0  0  0  0  0999 V2000
    1.2771    0.6734    0.0643 O   0  0  0  0  0  0  0  0  0  0  0  0
    2.4962    0.5467   -0.0825 N   0  0  0  0  0  0  0  0  0  0  0  0
    2.7983    0.3191   -1.3485 N   0  0  0  0  0  0  0  0  0  0  0  0
    4.1438   -0.2797   -1.5619 C   0  0  3  0  0  0  0  0  0  0  0  0
    4.3864   -1.5615   -0.7474 C   0  0  0  0  0  0  0  0  0  0  0  0
    3.9963   -2.8061   -1.2714 C   0  0  0  0  0  0  0  0  0  0  0  0
    4.2285   -3.9857   -0.5581 C   0  0  0  0  0  0  0  0  0  0  0  0
    4.8432   -3.9412    0.6916 C   0  0  0  0  0  0  0  0  0  0  0  0
    5.2127   -2.7175    1.2377 C   0  0  0  0  0  0  0  0  0  0  0  0
    4.9807   -1.5381    0.5273 C   0  0  0  0  0  0  0  0  0  0  0  0
    5.2965    0.7384   -1.4085 C   0  0  0  0  0  0  0  0  0  0  0  0
    5.0903    1.9688   -2.2784 C   0  0  0  0  0  0  0  0  0  0  0  0
    3.6938    2.5470   -2.0676 C   0  0  0  0  0  0  0  0  0  0  0  0
    2.5737    1.4924   -2.2509 C   0  0  3  0  0  0  0  0  0  0  0  0
    2.2908    1.0575   -3.6990 C   0  0  0  0  0  0  0  0  0  0  0  0
    2.8959    1.6507   -4.8196 C   0  0  0  0  0  0  0  0  0  0  0  0
    2.6007    1.2197   -6.1155 C   0  0  0  0  0  0  0  0  0  0  0  0
    1.6721    0.2042   -6.3195 C   0  0  0  0  0  0  0  0  0  0  0  0
    1.0282   -0.3717   -5.2288 C   0  0  0  0  0  0  0  0  0  0  0  0
    1.3304    0.0544   -3.9330 C   0  0  0  0  0  0  0  0  0  0  0  0
    4.1822   -0.6094   -2.6106 H   0  0  0  0  0  0  0  0  0  0  0  0
    3.5079   -2.8638   -2.2422 H   0  0  0  0  0  0  0  0  0  0  0  0
    3.9263   -4.9415   -0.9793 H   0  0  0  0  0  0  0  0  0  0  0  0
    5.0237   -4.8603    1.2439 H   0  0  0  0  0  0  0  0  0  0  0  0
    5.6769   -2.6773    2.2184 H   0  0  0  0  0  0  0  0  0  0  0  0
    5.2637   -0.6002    0.9972 H   0  0  0  0  0  0  0  0  0  0  0  0
    6.2500    0.2653   -1.6781 H   0  0  0  0  0  0  0  0  0  0  0  0
    5.3950    1.0733   -0.3689 H   0  0  0  0  0  0  0  0  0  0  0  0
    5.2500    1.7002   -3.3273 H   0  0  0  0  0  0  0  0  0  0  0  0
    5.8447    2.7255   -2.0344 H   0  0  0  0  0  0  0  0  0  0  0  0
    3.5382    3.4094   -2.7254 H   0  0  0  0  0  0  0  0  0  0  0  0
    3.6399    2.9484   -1.0462 H   0  0  0  0  0  0  0  0  0  0  0  0
    1.6392    2.0000   -1.9641 H   0  0  0  0  0  0  0  0  0  0  0  0
    3.6101    2.4635   -4.7211 H   0  0  0  0  0  0  0  0  0  0  0  0
    3.0929    1.6829   -6.9660 H   0  0  0  0  0  0  0  0  0  0  0  0
    1.4422   -0.1288   -7.3280 H   0  0  0  0  0  0  0  0  0  0  0  0
    0.2875   -1.1515   -5.3838 H   0  0  0  0  0  0  0  0  0  0  0  0
    0.8031   -0.4030   -3.0958 H   0  0  0  0  0  0  0  0  0  0  0  0
  1  2  2  0  0  0  0
  2  3  1  0  0  0  0
  3  4  1  0  0  0  0
  3 14  1  0  0  0  0
  4  5  1  0  0  0  0
  4 11  1  0  0  0  0
  4 21  1  0  0  0  0
  5  6  1  0  0  0  0
  5 10  2  0  0  0  0
  6  7  2  0  0  0  0
  6 22  1  0  0  0  0
  7  8  1  0  0  0  0
  7 23  1  0  0  0  0
  8  9  2  0  0  0  0
  8 24  1  0  0  0  0
  9 10  1  0  0  0  0
  9 25  1  0  0  0  0
 10 26  1  0  0  0  0
 11 12  1  0  0  0  0
 11 27  1  0  0  0  0
 11 28  1  0  0  0  0
 12 13  1  0  0  0  0
 12 29  1  0  0  0  0
 12 30  1  0  0  0  0
 13 14  1  0  0  0  0
 13 31  1  0  0  0  0
 13 32  1  0  0  0  0
 14 15  1  0  0  0  0
 14 33  1  0  0  0  0
 15 16  1  0  0  0  0
 15 20  2  0  0  0  0
 16 17  2  0  0  0  0
 16 34  1  0  0  0  0
 17 18  1  0  0  0  0
 17 35  1  0  0  0  0
 18 19  2  0  0  0  0
 18 36  1  0  0  0  0
 19 20  1  0  0  0  0
 19 37  1  0  0  0  0
 20 38  1  0  0  0  0
M  END
>  <Energy>
59.171

$$$$

 OpenBabel04232614443D

 35 37  0  0  0  0  0  0  0  0999 V2000
    0.9227    0.5581    0.2001 C   0  0  0  0  0  0  0  0  0  0  0  0
    2.3637    0.0789    0.0258 C   0  0  0  0  0  0  0  0  0  0  0  0
    3.2932    1.2636   -0.2415 C   0  0  0  0  0  0  0  0  0  0  0  0
    2.7951   -0.7335    1.2116 C   0  0  0  0  0  0  0  0  0  0  0  0
    3.3587   -0.0540    2.2496 O   0  0  0  0  0  0  0  0  0  0  0  0
    3.6512   -0.9598    3.2169 C   0  0  0  0  0  0  0  0  0  0  0  0
    4.2412   -0.6579    4.4433 C   0  0  0  0  0  0  0  0  0  0  0  0
    4.4494   -1.7256    5.3206 C   0  0  0  0  0  0  0  0  0  0  0  0
    4.0635   -3.0215    4.9774 C   0  0  0  0  0  0  0  0  0  0  0  0
    3.4619   -3.2911    3.7392 C   0  0  0  0  0  0  0  0  0  0  0  0
    3.2701   -2.2365    2.8207 C   0  0  0  0  0  0  0  0  0  0  0  0
    2.7380   -2.0936    1.4953 C   0  0  0  0  0  0  0  0  0  0  0  0
    2.1815   -3.0826    0.5834 C   0  0  0  0  0  0  0  0  0  0  0  0
    1.2527   -2.8139   -0.1736 O   0  0  0  0  0  0  0  0  0  0  0  0
    2.7418   -4.4585    0.5232 C   0  0  0  0  0  0  0  0  0  0  0  0
    4.0777   -4.7372    0.8130 C   0  0  0  0  0  0  0  0  0  0  0  0
    4.5003   -6.0509    0.7195 C   0  0  0  0  0  0  0  0  0  0  0  0
    3.7022   -7.0694    0.3362 N   0  0  0  0  0  0  0  0  0  0  0  0
    2.4258   -6.7670    0.0189 C   0  0  0  0  0  0  0  0  0  0  0  0
    1.9026   -5.4908    0.0964 C   0  0  0  0  0  0  0  0  0  0  0  0
    0.5778    1.0813   -0.6982 H   0  0  0  0  0  0  0  0  0  0  0  0
    0.8280    1.2432    1.0499 H   0  0  0  0  0  0  0  0  0  0  0  0
    0.2427   -0.2825    0.3769 H   0  0  0  0  0  0  0  0  0  0  0  0
    2.4046   -0.5629   -0.8631 H   0  0  0  0  0  0  0  0  0  0  0  0
    3.2776    1.9872    0.5813 H   0  0  0  0  0  0  0  0  0  0  0  0
    2.9915    1.7907   -1.1534 H   0  0  0  0  0  0  0  0  0  0  0  0
    4.3279    0.9291   -0.3744 H   0  0  0  0  0  0  0  0  0  0  0  0
    4.5193    0.3576    4.6986 H   0  0  0  0  0  0  0  0  0  0  0  0
    4.9092   -1.5398    6.2892 H   0  0  0  0  0  0  0  0  0  0  0  0
    4.2262   -3.8353    5.6816 H   0  0  0  0  0  0  0  0  0  0  0  0
    3.1540   -4.3070    3.5086 H   0  0  0  0  0  0  0  0  0  0  0  0
    4.7845   -3.9675    1.1017 H   0  0  0  0  0  0  0  0  0  0  0  0
    5.5245   -6.3284    0.9536 H   0  0  0  0  0  0  0  0  0  0  0  0
    1.8171   -7.6037   -0.3126 H   0  0  0  0  0  0  0  0  0  0  0  0
    0.8682   -5.3047   -0.1760 H   0  0  0  0  0  0  0  0  0  0  0  0
  1  2  1  0  0  0  0
  1 21  1  0  0  0  0
  1 22  1  0  0  0  0
  1 23  1  0  0  0  0
  2  3  1  0  0  0  0
  2  4  1  0  0  0  0
  2 24  1  0  0  0  0
  3 25  1  0  0  0  0
  3 26  1  0  0  0  0
  3 27  1  0  0  0  0
  4  5  1  0  0  0  0
  4 12  2  0  0  0  0
  5  6  1  0  0  0  0
  6  7  1  0  0  0  0
  6 11  2  0  0  0  0
  7  8  2  0  0  0  0
  7 28  1  0  0  0  0
  8  9  1  0  0  0  0
  8 29  1  0  0  0  0
  9 10  2  0  0  0  0
  9 30  1  0  0  0  0
 10 11  1  0  0  0  0
 10 31  1  0  0  0  0
 11 12  1  0  0  0  0
 12 13  1  0  0  0  0
 13 14  2  0  0  0  0
 13 15  1  0  0  0  0
 15 16  1  0  0  0  0
 15 20  2  0  0  0  0
 16 17  2  0  0  0  0
 16 32  1  0  0  0  0
 17 18  1  0  0  0  0
 17 33  1  0  0  0  0
 18 19  2  0  0  0  0
 19 20  1  0  0  0  0
 19 34  1  0  0  0  0
 20 35  1  0  0  0  0
M  END
>  <Energy>
46.6031

$$$$

 OpenBabel04232614443D

 29 30  0  0  0  0  0  0  0  0999 V2000
    1.4625    0.5891    0.0953 O   0  0  0  0  0  0  0  0  0  0  0  0
    2.4776   -0.0625   -0.1901 N   0  3  0  0  0  0  0  0  0  0  0  0
    2.9087   -0.2230   -1.3408 O   0  5  0  0  0  0  0  0  0  0  0  0
    3.2248   -0.6806    0.9130 C   0  0  0  0  0  0  0  0  0  0  0  0
    2.7838   -0.5082    2.2307 C   0  0  0  0  0  0  0  0  0  0  0  0
    3.5120   -1.0730    3.2815 C   0  0  0  0  0  0  0  0  0  0  0  0
    4.6833   -1.8058    3.0240 C   0  0  0  0  0  0  0  0  0  0  0  0
    5.4894   -2.3848    4.1663 C   0  0  0  0  0  0  0  0  0  0  0  0
    5.0492   -3.7421    4.4512 N   0  0  0  0  0  0  0  0  0  0  0  0
    5.5754   -4.4306    5.5488 C   0  0  0  0  0  0  0  0  0  0  0  0
    6.7258   -4.0287    6.2415 C   0  0  0  0  0  0  0  0  0  0  0  0
    7.2459   -4.7889    7.2959 C   0  0  0  0  0  0  0  0  0  0  0  0
    6.6419   -5.9899    7.6536 C   0  0  0  0  0  0  0  0  0  0  0  0
    5.5289   -6.4284    6.9445 C   0  0  0  0  0  0  0  0  0  0  0  0
    4.7968   -7.9316    7.3553 Cl  0  0  0  0  0  0  0  0  0  0  0  0
    5.0061   -5.6642    5.8979 C   0  0  0  0  0  0  0  0  0  0  0  0
    5.0949   -1.9956    1.6958 C   0  0  0  0  0  0  0  0  0  0  0  0
    4.3750   -1.4298    0.6393 C   0  0  0  0  0  0  0  0  0  0  0  0
    1.8870    0.0652    2.4570 H   0  0  0  0  0  0  0  0  0  0  0  0
    3.1675   -0.9323    4.3040 H   0  0  0  0  0  0  0  0  0  0  0  0
    5.3762   -1.7406    5.0474 H   0  0  0  0  0  0  0  0  0  0  0  0
    6.5502   -2.3763    3.8869 H   0  0  0  0  0  0  0  0  0  0  0  0
    4.0430   -3.8644    4.3654 H   0  0  0  0  0  0  0  0  0  0  0  0
    7.2443   -3.1099    5.9838 H   0  0  0  0  0  0  0  0  0  0  0  0
    8.1284   -4.4439    7.8288 H   0  0  0  0  0  0  0  0  0  0  0  0
    7.0490   -6.5813    8.4688 H   0  0  0  0  0  0  0  0  0  0  0  0
    4.1507   -6.0408    5.3430 H   0  0  0  0  0  0  0  0  0  0  0  0
    5.9876   -2.5818    1.4803 H   0  0  0  0  0  0  0  0  0  0  0  0
    4.7248   -1.5797   -0.3799 H   0  0  0  0  0  0  0  0  0  0  0  0
  1  2  2  0  0  0  0
  2  3  1  0  0  0  0
  2  4  1  0  0  0  0
  4  5  1  0  0  0  0
  4 18  2  0  0  0  0
  5  6  2  0  0  0  0
  5 19  1  0  0  0  0
  6  7  1  0  0  0  0
  6 20  1  0  0  0  0
  7  8  1  0  0  0  0
  7 17  2  0  0  0  0
  8  9  1  0  0  0  0
  8 21  1  0  0  0  0
  8 22  1  0  0  0  0
  9 10  1  0  0  0  0
  9 23  1  0  0  0  0
 10 11  1  0  0  0  0
 10 16  2  0  0  0  0
 11 12  2  0  0  0  0
 11 24  1  0  0  0  0
 12 13  1  0  0  0  0
 12 25  1  0  0  0  0
 13 14  2  0  0  0  0
 13 26  1  0  0  0  0
 14 15  1  0  0  0  0
 14 16  1  0  0  0  0
 16 27  1  0  0  0  0
 17 18  1  0  0  0  0
 17 28  1  0  0  0  0
 18 29  1  0  0  0  0
M  CHG  2   2   1   3  -1
M  END
>  <Energy>
61.5679

$$$$

 OpenBabel04232614443D

 31 33  0  0  0  0  0  0  0  0999 V2000
    2.4778   -0.1302   -0.6229 C   0  0  0  0  0  0  0  0  0  0  0  0
    0.9966   -0.0863   -0.3928 C   0  0  0  0  0  0  0  0  0  0  0  0
    0.3900   -0.8812    0.5850 C   0  0  0  0  0  0  0  0  0  0  0  0
   -0.9930   -0.8237    0.7874 C   0  0  0  0  0  0  0  0  0  0  0  0
   -1.7894    0.0496    0.0394 C   0  0  0  0  0  0  0  0  0  0  0  0
   -3.1829    0.0695    0.2586 N   0  0  0  0  0  0  0  0  0  0  0  0
   -3.9592    1.1891    0.0832 C   0  0  0  0  0  0  0  0  0  0  0  0
   -3.5370    2.3871    0.3336 N   0  0  0  0  0  0  0  0  0  0  0  0
   -4.3197    3.5239    0.1526 C   0  0  0  0  0  0  0  0  0  0  0  0
   -3.8589    4.7161    0.7227 C   0  0  0  0  0  0  0  0  0  0  0  0
   -4.5365    5.9200    0.5196 C   0  0  0  0  0  0  0  0  0  0  0  0
   -5.6815    5.9450   -0.2717 C   0  0  0  0  0  0  0  0  0  0  0  0
   -6.1525    4.7647   -0.8460 C   0  0  0  0  0  0  0  0  0  0  0  0
   -5.4755    3.5568   -0.6195 C   0  0  0  0  0  0  0  0  0  0  0  0
   -5.9811    2.3154   -1.2140 C   0  0  0  0  0  0  0  0  0  0  0  0
   -6.7436    2.3461   -2.1726 O   0  0  0  0  0  0  0  0  0  0  0  0
   -5.5749    0.8001   -0.4517 S   0  0  0  0  0  0  0  0  0  0  0  0
   -1.1789    0.8264   -0.9527 C   0  0  0  0  0  0  0  0  0  0  0  0
    0.1993    0.7605   -1.1676 C   0  0  0  0  0  0  0  0  0  0  0  0
    2.9757   -0.7978    0.0874 H   0  0  0  0  0  0  0  0  0  0  0  0
    2.9077    0.8694   -0.5003 H   0  0  0  0  0  0  0  0  0  0  0  0
    2.6902   -0.4912   -1.6342 H   0  0  0  0  0  0  0  0  0  0  0  0
    0.9886   -1.5458    1.2038 H   0  0  0  0  0  0  0  0  0  0  0  0
   -1.4405   -1.4409    1.5626 H   0  0  0  0  0  0  0  0  0  0  0  0
   -3.6235   -0.7975   -0.0245 H   0  0  0  0  0  0  0  0  0  0  0  0
   -2.9508    4.7019    1.3220 H   0  0  0  0  0  0  0  0  0  0  0  0
   -4.1591    6.8356    0.9687 H   0  0  0  0  0  0  0  0  0  0  0  0
   -6.2045    6.8828   -0.4438 H   0  0  0  0  0  0  0  0  0  0  0  0
   -7.0456    4.7859   -1.4671 H   0  0  0  0  0  0  0  0  0  0  0  0
   -1.7690    1.4949   -1.5746 H   0  0  0  0  0  0  0  0  0  0  0  0
    0.6455    1.3807   -1.9418 H   0  0  0  0  0  0  0  0  0  0  0  0
  1  2  1  0  0  0  0
  1 20  1  0  0  0  0
  1 21  1  0  0  0  0
  1 22  1  0  0  0  0
  2  3  1  0  0  0  0
  2 19  2  0  0  0  0
  3  4  2  0  0  0  0
  3 23  1  0  0  0  0
  4  5  1  0  0  0  0
  4 24  1  0  0  0  0
  5  6  1  0  0  0  0
  5 18  2  0  0  0  0
  6  7  1  0  0  0  0
  6 25  1  0  0  0  0
  7  8  2  0  0  0  0
  7 17  1  0  0  0  0
  8  9  1  0  0  0  0
  9 10  1  0  0  0  0
  9 14  2  0  0  0  0
 10 11  2  0  0  0  0
 10 26  1  0  0  0  0
 11 12  1  0  0  0  0
 11 27  1  0  0  0  0
 12 13  2  0  0  0  0
 12 28  1  0  0  0  0
 13 14  1  0  0  0  0
 13 29  1  0  0  0  0
 14 15  1  0  0  0  0
 15 16  2  0  0  0  0
 15 17  1  0  0  0  0
 18 19  1  0  0  0  0
 18 30  1  0  0  0  0
 19 31  1  0  0  0  0
M  END
>  <Energy>
0.282249

$$$$

 OpenBabel04232614443D

 28 30  0  0  0  0  0  0  0  0999 V2000
    1.1128    0.0362    0.1077 O   0  0  0  0  0  0  0  0  0  0  0  0
    2.4880   -0.0132    0.0789 C   0  0  0  0  0  0  0  0  0  0  0  0
    3.1081   -1.2621    0.0469 C   0  0  0  0  0  0  0  0  0  0  0  0
    4.4944   -1.3298    0.0214 C   0  0  0  0  0  0  0  0  0  0  0  0
    5.2456   -0.1525    0.0166 C   0  0  0  0  0  0  0  0  0  0  0  0
    6.9700   -0.3291   -0.0139 Cl  0  0  0  0  0  0  0  0  0  0  0  0
    4.6213    1.1209    0.0259 C   0  0  0  0  0  0  0  0  0  0  0  0
    5.3234    2.3487   -0.0192 C   0  0  0  0  0  0  0  0  0  0  0  0
    4.6356    3.5570   -0.0648 C   0  0  0  0  0  0  0  0  0  0  0  0
    3.2594    3.5118   -0.0493 C   0  0  0  0  0  0  0  0  0  0  0  0
    2.5882    4.7233   -0.0953 O   0  0  0  0  0  0  0  0  0  0  0  0
    1.3777    4.7147   -0.7729 C   0  0  0  0  0  0  0  0  0  0  0  0
    0.3710    5.5225   -0.2635 C   0  0  0  0  0  0  0  0  0  0  0  0
   -0.8510    5.5484   -0.9286 C   0  0  0  0  0  0  0  0  0  0  0  0
   -1.0220    4.7682   -2.0675 C   0  0  0  0  0  0  0  0  0  0  0  0
    0.0541    4.0206   -2.5190 C   0  0  0  0  0  0  0  0  0  0  0  0
    1.2632    4.0107   -1.9229 N   0  0  0  0  0  0  0  0  0  0  0  0
    2.5564    2.3681    0.0836 N   0  0  0  0  0  0  0  0  0  0  0  0
    3.2112    1.1890    0.0721 C   0  0  0  0  0  0  0  0  0  0  0  0
    0.7480   -0.8510   -0.0245 H   0  0  0  0  0  0  0  0  0  0  0  0
    2.5277   -2.1796    0.0432 H   0  0  0  0  0  0  0  0  0  0  0  0
    4.9856   -2.2994    0.0017 H   0  0  0  0  0  0  0  0  0  0  0  0
    6.4088    2.3728   -0.0458 H   0  0  0  0  0  0  0  0  0  0  0  0
    5.1626    4.5013   -0.1273 H   0  0  0  0  0  0  0  0  0  0  0  0
    0.5322    6.1056    0.6349 H   0  0  0  0  0  0  0  0  0  0  0  0
   -1.6660    6.1607   -0.5547 H   0  0  0  0  0  0  0  0  0  0  0  0
   -1.9701    4.7419   -2.5922 H   0  0  0  0  0  0  0  0  0  0  0  0
   -0.0312    3.3870   -3.3967 H   0  0  0  0  0  0  0  0  0  0  0  0
  1  2  1  0  0  0  0
  1 20  1  0  0  0  0
  2  3  1  0  0  0  0
  2 19  2  0  0  0  0
  3  4  2  0  0  0  0
  3 21  1  0  0  0  0
  4  5  1  0  0  0  0
  4 22  1  0  0  0  0
  5  6  1  0  0  0  0
  5  7  2  0  0  0  0
  7  8  1  0  0  0  0
  7 19  1  0  0  0  0
  8  9  2  0  0  0  0
  8 23  1  0  0  0  0
  9 10  1  0  0  0  0
  9 24  1  0  0  0  0
 10 11  1  0  0  0  0
 10 18  2  0  0  0  0
 11 12  1  0  0  0  0
 12 13  1  0  0  0  0
 12 17  2  0  0  0  0
 13 14  2  0  0  0  0
 13 25  1  0  0  0  0
 14 15  1  0  0  0  0
 14 26  1  0  0  0  0
 15 16  2  0  0  0  0
 15 27  1  0  0  0  0
 16 17  1  0  0  0  0
 16 28  1  0  0  0  0
 18 19  1  0  0  0  0
M  END
>  <Energy>
64.3013

$$$$

 OpenBabel04232614443D

 38 40  0  0  0  0  0  0  0  0999 V2000
    6.2415    1.5623   -1.4736 C   0  0  0  0  0  0  0  0  0  0  0  0
    5.1578    0.6912   -0.8590 C   0  0  0  0  0  0  0  0  0  0  0  0
    5.7221   -0.2148    0.2363 C   0  0  0  0  0  0  0  0  0  0  0  0
    4.6009   -0.9727    0.9511 C   0  0  0  0  0  0  0  0  0  0  0  0
    5.0606   -1.9671    1.9084 N   0  0  0  0  0  0  0  0  0  0  0  0
    5.7088   -1.7407    3.1135 C   0  0  0  0  0  0  0  0  0  0  0  0
    6.0687   -0.4312    3.5220 C   0  0  0  0  0  0  0  0  0  0  0  0
    7.0956   -0.2454    4.3641 C   0  0  0  0  0  0  0  0  0  0  0  0
    7.4822    1.0643    4.7611 C   0  0  0  0  0  0  0  0  0  0  0  0
    8.5143    1.4465    5.6129 C   0  0  0  0  0  0  0  0  0  0  0  0
    8.5072    2.8591    5.7042 C   0  0  0  0  0  0  0  0  0  0  0  0
    7.4782    3.2800    4.9035 C   0  0  0  0  0  0  0  0  0  0  0  0
    6.8595    2.2195    4.3313 O   0  0  0  0  0  0  0  0  0  0  0  0
    5.9134   -2.8802    3.7480 N   0  0  0  0  0  0  0  0  0  0  0  0
    5.3506   -3.8580    2.9723 C   0  0  0  0  0  0  0  0  0  0  0  0
    5.2407   -5.2349    3.2201 C   0  0  0  0  0  0  0  0  0  0  0  0
    4.6187   -6.0477    2.2651 C   0  0  0  0  0  0  0  0  0  0  0  0
    4.1289   -5.5006    1.0798 C   0  0  0  0  0  0  0  0  0  0  0  0
    4.2269   -4.1283    0.8176 C   0  0  0  0  0  0  0  0  0  0  0  0
    4.8342   -3.3264    1.7958 C   0  0  0  0  0  0  0  0  0  0  0  0
    5.8194    2.1949   -2.2608 H   0  0  0  0  0  0  0  0  0  0  0  0
    7.0346    0.9507   -1.9149 H   0  0  0  0  0  0  0  0  0  0  0  0
    6.6910    2.2164   -0.7192 H   0  0  0  0  0  0  0  0  0  0  0  0
    4.6953    0.0802   -1.6429 H   0  0  0  0  0  0  0  0  0  0  0  0
    4.3737    1.3367   -0.4455 H   0  0  0  0  0  0  0  0  0  0  0  0
    6.2831    0.3989    0.9483 H   0  0  0  0  0  0  0  0  0  0  0  0
    6.4384   -0.9222   -0.1984 H   0  0  0  0  0  0  0  0  0  0  0  0
    3.9777   -1.4803    0.2078 H   0  0  0  0  0  0  0  0  0  0  0  0
    3.9395   -0.2863    1.4924 H   0  0  0  0  0  0  0  0  0  0  0  0
    5.5115    0.4233    3.1472 H   0  0  0  0  0  0  0  0  0  0  0  0
    7.6599   -1.0921    4.7485 H   0  0  0  0  0  0  0  0  0  0  0  0
    9.1936    0.7695    6.1116 H   0  0  0  0  0  0  0  0  0  0  0  0
    9.1691    3.4883    6.2818 H   0  0  0  0  0  0  0  0  0  0  0  0
    7.0758    4.2497    4.6470 H   0  0  0  0  0  0  0  0  0  0  0  0
    5.6253   -5.6505    4.1449 H   0  0  0  0  0  0  0  0  0  0  0  0
    4.5192   -7.1137    2.4525 H   0  0  0  0  0  0  0  0  0  0  0  0
    3.6555   -6.1513    0.3464 H   0  0  0  0  0  0  0  0  0  0  0  0
    3.8366   -3.7182   -0.1069 H   0  0  0  0  0  0  0  0  0  0  0  0
  1  2  1  0  0  0  0
  1 21  1  0  0  0  0
  1 22  1  0  0  0  0
  1 23  1  0  0  0  0
  2  3  1  0  0  0  0
  2 24  1  0  0  0  0
  2 25  1  0  0  0  0
  3  4  1  0  0  0  0
  3 26  1  0  0  0  0
  3 27  1  0  0  0  0
  4  5  1  0  0  0  0
  4 28  1  0  0  0  0
  4 29  1  0  0  0  0
  5  6  1  0  0  0  0
  5 20  1  0  0  0  0
  6  7  1  0  0  0  0
  6 14  2  0  0  0  0
  7  8  2  0  0  0  0
  7 30  1  0  0  0  0
  8  9  1  0  0  0  0
  8 31  1  0  0  0  0
  9 10  2  0  0  0  0
  9 13  1  0  0  0  0
 10 11  1  0  0  0  0
 10 32  1  0  0  0  0
 11 12  2  0  0  0  0
 11 33  1  0  0  0  0
 12 13  1  0  0  0  0
 12 34  1  0  0  0  0
 14 15  1  0  0  0  0
 15 16  1  0  0  0  0
 15 20  2  0  0  0  0
 16 17  2  0  0  0  0
 16 35  1  0  0  0  0
 17 18  1  0  0  0  0
 17 36  1  0  0  0  0
 18 19  2  0  0  0  0
 18 37  1  0  0  0  0
 19 20  1  0  0  0  0
 19 38  1  0  0  0  0
M  END
>  <Energy>
10.3389

$$$$

 OpenBabel04232614443D

 30 32  0  0  0  0  0  0  0  0999 V2000
   -2.3376    1.6164    0.1866 C   0  0  0  0  0  0  0  0  0  0  0  0
   -1.4981    0.4455    0.1134 N   0  0  0  0  0  0  0  0  0  0  0  0
   -1.9023   -0.8680   -0.0350 C   0  0  0  0  0  0  0  0  0  0  0  0
   -3.2114   -1.2019   -0.1468 N   0  0  0  0  0  0  0  0  0  0  0  0
   -3.7393   -2.3325   -0.8148 C   0  0  0  0  0  0  0  0  0  0  0  0
   -2.9521   -3.2719   -1.4959 C   0  0  0  0  0  0  0  0  0  0  0  0
   -3.5270   -4.3620   -2.1604 C   0  0  0  0  0  0  0  0  0  0  0  0
   -4.9062   -4.5405   -2.1392 C   0  0  0  0  0  0  0  0  0  0  0  0
   -5.6997   -3.6378   -1.4392 C   0  0  0  0  0  0  0  0  0  0  0  0
   -7.4072   -3.8561   -1.3998 Cl  0  0  0  0  0  0  0  0  0  0  0  0
   -5.1261   -2.5503   -0.7752 C   0  0  0  0  0  0  0  0  0  0  0  0
   -0.8526   -1.6623   -0.0552 N   0  0  0  0  0  0  0  0  0  0  0  0
    0.2493   -0.8539    0.0029 C   0  0  0  0  0  0  0  0  0  0  0  0
    1.6083   -1.1983   -0.0291 C   0  0  0  0  0  0  0  0  0  0  0  0
    2.5619   -0.1744   -0.0084 C   0  0  0  0  0  0  0  0  0  0  0  0
    2.1687    1.1636    0.0480 C   0  0  0  0  0  0  0  0  0  0  0  0
    0.8162    1.5233    0.1005 C   0  0  0  0  0  0  0  0  0  0  0  0
   -0.1201    0.4819    0.0810 C   0  0  0  0  0  0  0  0  0  0  0  0
   -3.3055    1.3637    0.6217 H   0  0  0  0  0  0  0  0  0  0  0  0
   -2.4636    2.0098   -0.8256 H   0  0  0  0  0  0  0  0  0  0  0  0
   -1.8598    2.3625    0.8270 H   0  0  0  0  0  0  0  0  0  0  0  0
   -3.9278   -0.5205    0.0639 H   0  0  0  0  0  0  0  0  0  0  0  0
   -1.8717   -3.1652   -1.5416 H   0  0  0  0  0  0  0  0  0  0  0  0
   -2.8900   -5.0611   -2.6941 H   0  0  0  0  0  0  0  0  0  0  0  0
   -5.3507   -5.3818   -2.6628 H   0  0  0  0  0  0  0  0  0  0  0  0
   -5.7712   -1.8668   -0.2300 H   0  0  0  0  0  0  0  0  0  0  0  0
    1.9028   -2.2401   -0.0821 H   0  0  0  0  0  0  0  0  0  0  0  0
    3.6186   -0.4273   -0.0457 H   0  0  0  0  0  0  0  0  0  0  0  0
    2.9277    1.9429    0.0504 H   0  0  0  0  0  0  0  0  0  0  0  0
    0.5200    2.5658    0.1418 H   0  0  0  0  0  0  0  0  0  0  0  0
  1  2  1  0  0  0  0
  1 19  1  0  0  0  0
  1 20  1  0  0  0  0
  1 21  1  0  0  0  0
  2  3  1  0  0  0  0
  2 18  1  0  0  0  0
  3  4  1  0  0  0  0
  3 12  2  0  0  0  0
  4  5  1  0  0  0  0
  4 22  1  0  0  0  0
  5  6  1  0  0  0  0
  5 11  2  0  0  0  0
  6  7  2  0  0  0  0
  6 23  1  0  0  0  0
  7  8  1  0  0  0  0
  7 24  1  0  0  0  0
  8  9  2  0  0  0  0
  8 25  1  0  0  0  0
  9 10  1  0  0  0  0
  9 11  1  0  0  0  0
 11 26  1  0  0  0  0
 12 13  1  0  0  0  0
 13 14  1  0  0  0  0
 13 18  2  0  0  0  0
 14 15  2  0  0  0  0
 14 27  1  0  0  0  0
 15 16  1  0  0  0  0
 15 28  1  0  0  0  0
 16 17  2  0  0  0  0
 16 29  1  0  0  0  0
 17 18  1  0  0  0  0
 17 30  1  0  0  0  0
M  END
>  <Energy>
9.99559

$$$$

 OpenBabel04232614443D

 29 32  0  0  0  0  0  0  0  0999 V2000
    0.5857    0.5608   -2.2114 C   0  0  0  0  0  0  0  0  0  0  0  0
   -0.3474    0.8839   -1.2365 C   0  0  0  0  0  0  0  0  0  0  0  0
   -0.9773   -0.1399   -0.5312 C   0  0  0  0  0  0  0  0  0  0  0  0
   -0.6481   -1.4607   -0.8228 C   0  0  0  0  0  0  0  0  0  0  0  0
   -1.4857   -2.7688    0.0514 S   0  0  0  0  0  0  0  0  0  0  0  0
   -0.2775   -4.0486    0.0090 C   0  0  0  0  0  0  0  0  0  0  0  0
    0.6029   -4.1704    1.0360 N   0  0  0  0  0  0  0  0  0  0  0  0
    1.4873   -5.1860    0.9948 C   0  0  0  0  0  0  0  0  0  0  0  0
    1.6102   -6.1426    0.0591 N   0  0  0  0  0  0  0  0  0  0  0  0
    0.7065   -6.0203   -0.9430 C   0  0  0  0  0  0  0  0  0  0  0  0
   -0.2349   -5.0033   -0.9907 C   0  0  0  0  0  0  0  0  0  0  0  0
   -1.0263   -5.1382   -2.0939 O   0  0  0  0  0  0  0  0  0  0  0  0
   -0.5804   -6.2406   -2.7619 C   0  0  0  0  0  0  0  0  0  0  0  0
   -1.1146   -6.7323   -3.9513 C   0  0  0  0  0  0  0  0  0  0  0  0
   -0.5180   -7.8835   -4.4781 C   0  0  0  0  0  0  0  0  0  0  0  0
    0.5579   -8.5005   -3.8339 C   0  0  0  0  0  0  0  0  0  0  0  0
    1.0747   -7.9839   -2.6374 C   0  0  0  0  0  0  0  0  0  0  0  0
    0.4906   -6.8252   -2.0918 C   0  0  0  0  0  0  0  0  0  0  0  0
    0.2549   -1.7907   -1.7746 N   0  0  0  0  0  0  0  0  0  0  0  0
    0.8506   -0.7783   -2.4422 C   0  0  0  0  0  0  0  0  0  0  0  0
    1.0934    1.3318   -2.7805 H   0  0  0  0  0  0  0  0  0  0  0  0
   -0.5875    1.9226   -1.0262 H   0  0  0  0  0  0  0  0  0  0  0  0
   -1.7126    0.0982    0.2307 H   0  0  0  0  0  0  0  0  0  0  0  0
    2.1840   -5.2423    1.8264 H   0  0  0  0  0  0  0  0  0  0  0  0
   -1.9500   -6.2441   -4.4382 H   0  0  0  0  0  0  0  0  0  0  0  0
   -0.9003   -8.3052   -5.4057 H   0  0  0  0  0  0  0  0  0  0  0  0
    1.0021   -9.3955   -4.2653 H   0  0  0  0  0  0  0  0  0  0  0  0
    1.9100   -8.4670   -2.1384 H   0  0  0  0  0  0  0  0  0  0  0  0
    1.5706   -1.0843   -3.1960 H   0  0  0  0  0  0  0  0  0  0  0  0
  1  2  1  0  0  0  0
  1 20  2  0  0  0  0
  1 21  1  0  0  0  0
  2  3  2  0  0  0  0
  2 22  1  0  0  0  0
  3  4  1  0  0  0  0
  3 23  1  0  0  0  0
  4  5  1  0  0  0  0
  4 19  2  0  0  0  0
  5  6  1  0  0  0  0
  6  7  1  0  0  0  0
  6 11  2  0  0  0  0
  7  8  2  0  0  0  0
  8  9  1  0  0  0  0
  8 24  1  0  0  0  0
  9 10  2  0  0  0  0
 10 11  1  0  0  0  0
 10 18  1  0  0  0  0
 11 12  1  0  0  0  0
 12 13  1  0  0  0  0
 13 14  1  0  0  0  0
 13 18  2  0  0  0  0
 14 15  2  0  0  0  0
 14 25  1  0  0  0  0
 15 16  1  0  0  0  0
 15 26  1  0  0  0  0
 16 17  2  0  0  0  0
 16 27  1  0  0  0  0
 17 18  1  0  0  0  0
 17 28  1  0  0  0  0
 19 20  1  0  0  0  0
 20 29  1  0  0  0  0
M  END
>  <Energy>
26.3049

$$$$

 OpenBabel04232614443D

 33 35  0  0  0  0  0  0  0  0999 V2000
    1.1715   -0.2925   -0.1716 C   0  0  0  0  0  0  0  0  0  0  0  0
    2.5926   -0.2161   -0.0914 O   0  0  0  0  0  0  0  0  0  0  0  0
    3.1326    0.0172    1.1472 C   0  0  0  0  0  0  0  0  0  0  0  0
    4.2527    0.8728    1.1192 C   0  0  0  0  0  0  0  0  0  0  0  0
    4.9399    1.2297    2.2903 C   0  0  0  0  0  0  0  0  0  0  0  0
    4.5480    0.6437    3.4954 C   0  0  0  0  0  0  0  0  0  0  0  0
    3.4492   -0.2332    3.5245 C   0  0  0  0  0  0  0  0  0  0  0  0
    2.7411   -0.5503    2.3629 C   0  0  0  0  0  0  0  0  0  0  0  0
    1.4794   -1.7151    2.5415 Cl  0  0  0  0  0  0  0  0  0  0  0  0
    5.2904    0.8864    4.7721 C   0  0  0  0  0  0  0  0  0  0  0  0
    6.5109    1.7854    4.6826 C   0  0  0  0  0  0  0  0  0  0  0  0
    6.7764    2.4049    3.3986 N   0  0  0  0  0  0  0  0  0  0  0  0
    6.0955    2.1799    2.3294 C   0  0  0  0  0  0  0  0  0  0  0  0
    6.5467    2.9541    1.1292 C   0  0  0  0  0  0  0  0  0  0  0  0
    7.9286    3.1181    0.9366 C   0  0  0  0  0  0  0  0  0  0  0  0
    8.4147    3.9162   -0.1023 C   0  0  0  0  0  0  0  0  0  0  0  0
    7.5247    4.5542   -0.9587 C   0  0  0  0  0  0  0  0  0  0  0  0
    6.1485    4.4111   -0.7665 C   0  0  0  0  0  0  0  0  0  0  0  0
    5.6595    3.6319    0.2907 C   0  0  0  0  0  0  0  0  0  0  0  0
    0.8763    0.0445   -1.1707 H   0  0  0  0  0  0  0  0  0  0  0  0
    0.6696    0.3559    0.5551 H   0  0  0  0  0  0  0  0  0  0  0  0
    0.8413   -1.3311   -0.0819 H   0  0  0  0  0  0  0  0  0  0  0  0
    4.5717    1.2420    0.1485 H   0  0  0  0  0  0  0  0  0  0  0  0
    3.1617   -0.6925    4.4696 H   0  0  0  0  0  0  0  0  0  0  0  0
    5.6144   -0.0845    5.1709 H   0  0  0  0  0  0  0  0  0  0  0  0
    4.5938    1.3043    5.5101 H   0  0  0  0  0  0  0  0  0  0  0  0
    7.4004    1.2177    4.9812 H   0  0  0  0  0  0  0  0  0  0  0  0
    6.4122    2.5823    5.4297 H   0  0  0  0  0  0  0  0  0  0  0  0
    8.6336    2.6469    1.6184 H   0  0  0  0  0  0  0  0  0  0  0  0
    9.4872    4.0529   -0.2246 H   0  0  0  0  0  0  0  0  0  0  0  0
    7.8986    5.1825   -1.7632 H   0  0  0  0  0  0  0  0  0  0  0  0
    5.4555    4.9316   -1.4228 H   0  0  0  0  0  0  0  0  0  0  0  0
    4.5860    3.5878    0.4518 H   0  0  0  0  0  0  0  0  0  0  0  0
  1  2  1  0  0  0  0
  1 20  1  0  0  0  0
  1 21  1  0  0  0  0
  1 22  1  0  0  0  0
  2  3  1  0  0  0  0
  3  4  1  0  0  0  0
  3  8  2  0  0  0  0
  4  5  2  0  0  0  0
  4 23  1  0  0  0  0
  5  6  1  0  0  0  0
  5 13  1  0  0  0  0
  6  7  2  0  0  0  0
  6 10  1  0  0  0  0
  7  8  1  0  0  0  0
  7 24  1  0  0  0  0
  8  9  1  0  0  0  0
 10 11  1  0  0  0  0
 10 25  1  0  0  0  0
 10 26  1  0  0  0  0
 11 12  1  0  0  0  0
 11 27  1  0  0  0  0
 11 28  1  0  0  0  0
 12 13  2  0  0  0  0
 13 14  1  0  0  0  0
 14 15  1  0  0  0  0
 14 19  2  0  0  0  0
 15 16  2  0  0  0  0
 15 29  1  0  0  0  0
 16 17  1  0  0  0  0
 16 30  1  0  0  0  0
 17 18  2  0  0  0  0
 17 31  1  0  0  0  0
 18 19  1  0  0  0  0
 18 32  1  0  0  0  0
 19 33  1  0  0  0  0
M  END
>  <Energy>
110.2

$$$$

 OpenBabel04232614443D

 38 40  0  0  0  0  0  0  0  0999 V2000
    1.3952   -0.1278   -0.5006 C   0  0  0  0  0  0  0  0  0  0  0  0
    2.7341   -0.2673    0.0604 N   0  0  0  0  0  0  0  0  0  0  0  0
    3.3691    0.9278    0.5989 C   0  0  0  0  0  0  0  0  0  0  0  0
    3.4147   -1.4777   -0.0068 C   0  0  0  0  0  0  0  0  0  0  0  0
    2.8437   -2.6149   -0.5916 C   0  0  0  0  0  0  0  0  0  0  0  0
    3.5105   -3.8477   -0.6500 C   0  0  0  0  0  0  0  0  0  0  0  0
    4.7975   -4.0049   -0.1296 C   0  0  0  0  0  0  0  0  0  0  0  0
    5.5168   -5.2946   -0.1329 C   0  0  0  0  0  0  0  0  0  0  0  0
    5.1249   -6.3707   -0.8380 C   0  0  0  0  0  0  0  0  0  0  0  0
    5.7722   -7.6940   -0.8344 C   0  0  0  0  0  0  0  0  0  0  0  0
    7.1416   -7.8104   -1.0123 C   0  0  0  0  0  0  0  0  0  0  0  0
    7.7630   -8.9966   -1.1365 N   0  0  0  0  0  0  0  0  0  0  0  0
    7.0231  -10.1443   -1.1160 N   0  0  0  0  0  0  0  0  0  0  0  0
    5.6924  -10.1074   -0.9472 C   0  0  0  0  0  0  0  0  0  0  0  0
    4.9687  -11.2967   -0.9479 C   0  0  0  0  0  0  0  0  0  0  0  0
    3.5852  -11.3196   -0.7628 C   0  0  0  0  0  0  0  0  0  0  0  0
    2.9023  -10.1303   -0.5604 C   0  0  0  0  0  0  0  0  0  0  0  0
    3.6056   -8.9265   -0.5670 C   0  0  0  0  0  0  0  0  0  0  0  0
    5.0083   -8.8879   -0.7794 C   0  0  0  0  0  0  0  0  0  0  0  0
    5.3865   -2.8835    0.4591 C   0  0  0  0  0  0  0  0  0  0  0  0
    4.7070   -1.6510    0.5157 C   0  0  0  0  0  0  0  0  0  0  0  0
    0.9851    0.8752   -0.3409 H   0  0  0  0  0  0  0  0  0  0  0  0
    0.6981   -0.8280   -0.0263 H   0  0  0  0  0  0  0  0  0  0  0  0
    1.4054   -0.3019   -1.5821 H   0  0  0  0  0  0  0  0  0  0  0  0
    2.7103    1.8015    0.5406 H   0  0  0  0  0  0  0  0  0  0  0  0
    4.2764    1.1766    0.0374 H   0  0  0  0  0  0  0  0  0  0  0  0
    3.6197    0.7915    1.6560 H   0  0  0  0  0  0  0  0  0  0  0  0
    1.8467   -2.5799   -1.0223 H   0  0  0  0  0  0  0  0  0  0  0  0
    2.9758   -4.6755   -1.1061 H   0  0  0  0  0  0  0  0  0  0  0  0
    6.3964   -5.3468    0.5047 H   0  0  0  0  0  0  0  0  0  0  0  0
    4.2531   -6.3244   -1.4847 H   0  0  0  0  0  0  0  0  0  0  0  0
    7.7935   -6.9474   -1.0886 H   0  0  0  0  0  0  0  0  0  0  0  0
    5.5008  -12.2332   -1.1001 H   0  0  0  0  0  0  0  0  0  0  0  0
    3.0495  -12.2656   -0.7714 H   0  0  0  0  0  0  0  0  0  0  0  0
    1.8273  -10.1348   -0.3974 H   0  0  0  0  0  0  0  0  0  0  0  0
    3.0457   -8.0104   -0.3906 H   0  0  0  0  0  0  0  0  0  0  0  0
    6.3830   -2.9441    0.8911 H   0  0  0  0  0  0  0  0  0  0  0  0
    5.2256   -0.8249    0.9946 H   0  0  0  0  0  0  0  0  0  0  0  0
  1  2  1  0  0  0  0
  1 22  1  0  0  0  0
  1 23  1  0  0  0  0
  1 24  1  0  0  0  0
  2  3  1  0  0  0  0
  2  4  1  0  0  0  0
  3 25  1  0  0  0  0
  3 26  1  0  0  0  0
  3 27  1  0  0  0  0
  4  5  1  0  0  0  0
  4 21  2  0  0  0  0
  5  6  2  0  0  0  0
  5 28  1  0  0  0  0
  6  7  1  0  0  0  0
  6 29  1  0  0  0  0
  7  8  1  0  0  0  0
  7 20  2  0  0  0  0
  8  9  2  0  0  0  0
  8 30  1  0  0  0  0
  9 10  1  0  0  0  0
  9 31  1  0  0  0  0
 10 11  1  0  0  0  0
 10 19  2  0  0  0  0
 11 12  2  0  0  0  0
 11 32  1  0  0  0  0
 12 13  1  0  0  0  0
 13 14  2  0  0  0  0
 14 15  1  0  0  0  0
 14 19  1  0  0  0  0
 15 16  2  0  0  0  0
 15 33  1  0  0  0  0
 16 17  1  0  0  0  0
 16 34  1  0  0  0  0
 17 18  2  0  0  0  0
 17 35  1  0  0  0  0
 18 19  1  0  0  0  0
 18 36  1  0  0  0  0
 20 21  1  0  0  0  0
 20 37  1  0  0  0  0
 21 38  1  0  0  0  0
M  END
>  <Energy>
76.2631

$$$$

 OpenBabel04232614443D

 35 36  0  0  1  0  0  0  0  0999 V2000
    1.1818   -0.2622   -1.3424 C   0  0  0  0  0  0  0  0  0  0  0  0
    2.6077   -0.2642   -1.2621 O   0  0  0  0  0  0  0  0  0  0  0  0
    3.1323    0.9342   -0.8887 C   0  0  0  0  0  0  0  0  0  0  0  0
    2.4890    1.9399   -0.6244 O   0  0  0  0  0  0  0  0  0  0  0  0
    4.6173    0.8832   -0.8469 C   0  0  1  0  0  0  0  0  0  0  0  0
    5.4078    2.1744   -0.7702 C   0  0  2  0  0  0  0  0  0  0  0  0
    6.6258    2.3509   -1.5736 C   0  0  0  0  0  0  0  0  0  0  0  0
    6.7146    2.2497   -2.9113 C   0  0  0  0  0  0  0  0  0  0  0  0
    7.9546    2.4506   -3.6763 C   0  0  0  0  0  0  0  0  0  0  0  0
    9.2171    2.1172   -3.1616 C   0  0  0  0  0  0  0  0  0  0  0  0
   10.3733    2.3088   -3.9241 C   0  0  0  0  0  0  0  0  0  0  0  0
   10.2734    2.8208   -5.2146 C   0  0  0  0  0  0  0  0  0  0  0  0
   11.6962    3.0592   -6.1522 Cl  0  0  0  0  0  0  0  0  0  0  0  0
    9.0279    3.1361   -5.7507 C   0  0  0  0  0  0  0  0  0  0  0  0
    7.8723    2.9462   -4.9853 C   0  0  0  0  0  0  0  0  0  0  0  0
    5.4153    1.2122    0.4097 C   0  0  0  0  0  0  0  0  0  0  0  0
    4.7139    1.6639    1.6681 C   0  0  0  0  0  0  0  0  0  0  0  0
    6.6301    0.3563    0.6918 C   0  0  0  0  0  0  0  0  0  0  0  0
    0.8580   -1.2489   -1.6851 H   0  0  0  0  0  0  0  0  0  0  0  0
    0.8366    0.4836   -2.0658 H   0  0  0  0  0  0  0  0  0  0  0  0
    0.7441   -0.0765   -0.3565 H   0  0  0  0  0  0  0  0  0  0  0  0
    5.0238    0.0927   -1.4730 H   0  0  0  0  0  0  0  0  0  0  0  0
    4.8409    3.0960   -0.6553 H   0  0  0  0  0  0  0  0  0  0  0  0
    7.5098    2.6229   -1.0027 H   0  0  0  0  0  0  0  0  0  0  0  0
    5.8228    2.0263   -3.4927 H   0  0  0  0  0  0  0  0  0  0  0  0
    9.3180    1.6976   -2.1638 H   0  0  0  0  0  0  0  0  0  0  0  0
   11.3425    2.0534   -3.5052 H   0  0  0  0  0  0  0  0  0  0  0  0
    8.9467    3.5307   -6.7603 H   0  0  0  0  0  0  0  0  0  0  0  0
    6.9077    3.2012   -5.4187 H   0  0  0  0  0  0  0  0  0  0  0  0
    3.8650    2.3245    1.4716 H   0  0  0  0  0  0  0  0  0  0  0  0
    5.4118    2.2170    2.3063 H   0  0  0  0  0  0  0  0  0  0  0  0
    4.3486    0.7988    2.2311 H   0  0  0  0  0  0  0  0  0  0  0  0
    7.1050   -0.0173   -0.2215 H   0  0  0  0  0  0  0  0  0  0  0  0
    6.3482   -0.5142    1.2934 H   0  0  0  0  0  0  0  0  0  0  0  0
    7.3769    0.9310    1.2500 H   0  0  0  0  0  0  0  0  0  0  0  0
  1  2  1  0  0  0  0
  1 19  1  0  0  0  0
  1 20  1  0  0  0  0
  1 21  1  0  0  0  0
  2  3  1  0  0  0  0
  3  4  2  0  0  0  0
  3  5  1  0  0  0  0
  5  6  1  0  0  0  0
  5 16  1  0  0  0  0
  5 22  1  6  0  0  0
  6  7  1  0  0  0  0
  6 16  1  0  0  0  0
  6 23  1  1  0  0  0
  7  8  2  0  0  0  0
  7 24  1  0  0  0  0
  8  9  1  0  0  0  0
  8 25  1  0  0  0  0
  9 10  1  0  0  0  0
  9 15  2  0  0  0  0
 10 11  2  0  0  0  0
 10 26  1  0  0  0  0
 11 12  1  0  0  0  0
 11 27  1  0  0  0  0
 12 13  1  0  0  0  0
 12 14  2  0  0  0  0
 14 15  1  0  0  0  0
 14 28  1  0  0  0  0
 15 29  1  0  0  0  0
 16 17  1  0  0  0  0
 16 18  1  0  0  0  0
 17 30  1  0  0  0  0
 17 31  1  0  0  0  0
 17 32  1  0  0  0  0
 18 33  1  0  0  0  0
 18 34  1  0  0  0  0
 18 35  1  0  0  0  0
M  END
>  <Energy>
30.05

$$$$

 OpenBabel04232614443D

 35 37  0  0  0  0  0  0  0  0999 V2000
    1.2907    0.3365   -0.0502 C   0  0  0  0  0  0  0  0  0  0  0  0
    2.7637    0.1581   -0.0695 C   0  0  0  0  0  0  0  0  0  0  0  0
    3.2681   -1.1118   -0.2035 N   0  0  0  0  0  0  0  0  0  0  0  0
    4.5690   -0.9591   -0.2067 C   0  0  0  0  0  0  0  0  0  0  0  0
    5.6724   -2.2677   -0.4721 S   0  0  0  0  0  0  0  0  0  0  0  0
    4.9516    0.3520    0.0137 N   0  0  0  0  0  0  0  0  0  0  0  0
    6.2564    0.8556    0.1134 N   0  0  0  0  0  0  0  0  0  0  0  0
    7.2019    0.3558    1.0437 C   0  0  0  0  0  0  0  0  0  0  0  0
    8.5697    0.4811    0.7641 C   0  0  0  0  0  0  0  0  0  0  0  0
    9.5299   -0.0491    1.6310 C   0  0  0  0  0  0  0  0  0  0  0  0
    9.1348   -0.6837    2.8055 C   0  0  0  0  0  0  0  0  0  0  0  0
    7.7828   -0.7541    3.1308 C   0  0  0  0  0  0  0  0  0  0  0  0
    6.8244   -0.2163    2.2660 C   0  0  0  0  0  0  0  0  0  0  0  0
    3.7831    1.1100   -0.0019 C   0  0  0  0  0  0  0  0  0  0  0  0
    3.7021    2.5812    0.0144 C   0  0  0  0  0  0  0  0  0  0  0  0
    2.7551    3.2373   -0.7890 C   0  0  0  0  0  0  0  0  0  0  0  0
    2.6391    4.6302   -0.7880 C   0  0  0  0  0  0  0  0  0  0  0  0
    3.4858    5.3958    0.0056 C   0  0  0  0  0  0  0  0  0  0  0  0
    4.4417    4.7653    0.7992 C   0  0  0  0  0  0  0  0  0  0  0  0
    4.5452    3.3686    0.8093 C   0  0  0  0  0  0  0  0  0  0  0  0
    0.7898   -0.6152    0.1528 H   0  0  0  0  0  0  0  0  0  0  0  0
    0.9354    0.6975   -1.0200 H   0  0  0  0  0  0  0  0  0  0  0  0
    0.9919    1.0462    0.7262 H   0  0  0  0  0  0  0  0  0  0  0  0
    4.7645   -3.2447   -0.3451 H   0  0  0  0  0  0  0  0  0  0  0  0
    6.6538    0.9617   -0.8139 H   0  0  0  0  0  0  0  0  0  0  0  0
    8.9031    0.9661   -0.1494 H   0  0  0  0  0  0  0  0  0  0  0  0
   10.5854    0.0227    1.3814 H   0  0  0  0  0  0  0  0  0  0  0  0
    9.8787   -1.1173    3.4689 H   0  0  0  0  0  0  0  0  0  0  0  0
    7.4699   -1.2375    4.0527 H   0  0  0  0  0  0  0  0  0  0  0  0
    5.7771   -0.2843    2.5492 H   0  0  0  0  0  0  0  0  0  0  0  0
    2.0941    2.6727   -1.4417 H   0  0  0  0  0  0  0  0  0  0  0  0
    1.8899    5.1137   -1.4103 H   0  0  0  0  0  0  0  0  0  0  0  0
    3.4033    6.4794    0.0046 H   0  0  0  0  0  0  0  0  0  0  0  0
    5.1105    5.3604    1.4159 H   0  0  0  0  0  0  0  0  0  0  0  0
    5.2914    2.9110    1.4523 H   0  0  0  0  0  0  0  0  0  0  0  0
  1  2  1  0  0  0  0
  1 21  1  0  0  0  0
  1 22  1  0  0  0  0
  1 23  1  0  0  0  0
  2  3  1  0  0  0  0
  2 14  2  0  0  0  0
  3  4  2  0  0  0  0
  4  5  1  0  0  0  0
  4  6  1  0  0  0  0
  5 24  1  0  0  0  0
  6  7  1  0  0  0  0
  6 14  1  0  0  0  0
  7  8  1  0  0  0  0
  7 25  1  0  0  0  0
  8  9  1  0  0  0  0
  8 13  2  0  0  0  0
  9 10  2  0  0  0  0
  9 26  1  0  0  0  0
 10 11  1  0  0  0  0
 10 27  1  0  0  0  0
 11 12  2  0  0  0  0
 11 28  1  0  0  0  0
 12 13  1  0  0  0  0
 12 29  1  0  0  0  0
 13 30  1  0  0  0  0
 14 15  1  0  0  0  0
 15 16  1  0  0  0  0
 15 20  2  0  0  0  0
 16 17  2  0  0  0  0
 16 31  1  0  0  0  0
 17 18  1  0  0  0  0
 17 32  1  0  0  0  0
 18 19  2  0  0  0  0
 18 33  1  0  0  0  0
 19 20  1  0  0  0  0
 19 34  1  0  0  0  0
 20 35  1  0  0  0  0
M  END
>  <Energy>
44.986

$$$$

 OpenBabel04232614443D

 25 26  0  0  0  0  0  0  0  0999 V2000
   -1.6089    0.2280   -0.1300 Br  0  0  0  0  0  0  0  0  0  0  0  0
    0.2742    0.0714   -0.0688 C   0  0  0  0  0  0  0  0  0  0  0  0
    0.8555   -1.0068    0.5913 C   0  0  0  0  0  0  0  0  0  0  0  0
    2.2490   -1.1212    0.6415 C   0  0  0  0  0  0  0  0  0  0  0  0
    3.0745   -0.1798    0.0067 C   0  0  0  0  0  0  0  0  0  0  0  0
    4.5915   -0.2446    0.0651 C   0  0  0  0  0  0  0  0  0  0  0  0
    5.2780   -1.9347    0.0066 S   0  0  0  0  0  0  0  0  0  0  0  0
    7.0243   -1.5879    0.1093 C   0  0  0  0  0  0  0  0  0  0  0  0
    7.9139   -2.6567    0.1715 C   0  0  0  0  0  0  0  0  0  0  0  0
    9.2806   -2.3939    0.2219 C   0  0  0  0  0  0  0  0  0  0  0  0
    9.7188   -1.0765    0.2112 C   0  0  0  0  0  0  0  0  0  0  0  0
    8.7651   -0.0745    0.1556 C   0  0  0  0  0  0  0  0  0  0  0  0
    7.4331   -0.3001    0.1053 N   0  0  0  0  0  0  0  0  0  0  0  0
    2.4639    0.9137   -0.6335 C   0  0  0  0  0  0  0  0  0  0  0  0
    1.0699    1.0374   -0.6740 C   0  0  0  0  0  0  0  0  0  0  0  0
    0.2408   -1.7613    1.0732 H   0  0  0  0  0  0  0  0  0  0  0  0
    2.6762   -1.9634    1.1814 H   0  0  0  0  0  0  0  0  0  0  0  0
    4.9182    0.2587    0.9818 H   0  0  0  0  0  0  0  0  0  0  0  0
    4.9980    0.2998   -0.7951 H   0  0  0  0  0  0  0  0  0  0  0  0
    7.5563   -3.6815    0.1757 H   0  0  0  0  0  0  0  0  0  0  0  0
    9.9950   -3.2115    0.2652 H   0  0  0  0  0  0  0  0  0  0  0  0
   10.7750   -0.8359    0.2443 H   0  0  0  0  0  0  0  0  0  0  0  0
    9.0564    0.9723    0.1469 H   0  0  0  0  0  0  0  0  0  0  0  0
    3.0717    1.6838   -1.1043 H   0  0  0  0  0  0  0  0  0  0  0  0
    0.6225    1.8902   -1.1772 H   0  0  0  0  0  0  0  0  0  0  0  0
  1  2  1  0  0  0  0
  2  3  1  0  0  0  0
  2 15  2  0  0  0  0
  3  4  2  0  0  0  0
  3 16  1  0  0  0  0
  4  5  1  0  0  0  0
  4 17  1  0  0  0  0
  5  6  1  0  0  0  0
  5 14  2  0  0  0  0
  6  7  1  0  0  0  0
  6 18  1  0  0  0  0
  6 19  1  0  0  0  0
  7  8  1  0  0  0  0
  8  9  1  0  0  0  0
  8 13  2  0  0  0  0
  9 10  2  0  0  0  0
  9 20  1  0  0  0  0
 10 11  1  0  0  0  0
 10 21  1  0  0  0  0
 11 12  2  0  0  0  0
 11 22  1  0  0  0  0
 12 13  1  0  0  0  0
 12 23  1  0  0  0  0
 14 15  1  0  0  0  0
 14 24  1  0  0  0  0
 15 25  1  0  0  0  0
M  END
>  <Energy>
23.4225

$$$$

 OpenBabel04232614443D

 35 37  0  0  0  0  0  0  0  0999 V2000
    1.8258   -1.3902   -0.0160 C   0  0  0  0  0  0  0  0  0  0  0  0
    3.0551   -0.6739   -0.0358 O   0  0  0  0  0  0  0  0  0  0  0  0
    3.4242   -0.0488    1.1246 C   0  0  0  0  0  0  0  0  0  0  0  0
    2.6880   -0.0272    2.3082 C   0  0  0  0  0  0  0  0  0  0  0  0
    3.1825    0.6470    3.4252 C   0  0  0  0  0  0  0  0  0  0  0  0
    4.4156    1.2991    3.3659 C   0  0  0  0  0  0  0  0  0  0  0  0
    5.1788    1.2747    2.1927 C   0  0  0  0  0  0  0  0  0  0  0  0
    6.4708    1.9740    2.0767 C   0  0  0  0  0  0  0  0  0  0  0  0
    7.3369    2.1447    3.0902 C   0  0  0  0  0  0  0  0  0  0  0  0
    8.5914    2.8756    3.0074 C   0  0  0  0  0  0  0  0  0  0  0  0
    9.3344    3.1090    4.0979 C   0  0  0  0  0  0  0  0  0  0  0  0
   10.5508    3.9312    3.9855 C   0  0  0  0  0  0  0  0  0  0  0  0
   11.2706    4.1310    4.9524 O   0  0  0  0  0  0  0  0  0  0  0  0
   10.8274    4.5066    2.6613 C   0  0  0  0  0  0  0  0  0  0  0  0
   11.8762    5.4130    2.4756 C   0  0  0  0  0  0  0  0  0  0  0  0
   12.1240    5.9253    1.2014 C   0  0  0  0  0  0  0  0  0  0  0  0
   11.3407    5.5169    0.1194 C   0  0  0  0  0  0  0  0  0  0  0  0
   10.2871    4.6209    0.3140 C   0  0  0  0  0  0  0  0  0  0  0  0
   10.0187    4.1332    1.5924 C   0  0  0  0  0  0  0  0  0  0  0  0
    8.9321    3.3086    1.7332 O   0  0  0  0  0  0  0  0  0  0  0  0
    4.6585    0.6117    1.0713 C   0  0  0  0  0  0  0  0  0  0  0  0
    1.7209   -1.9043   -0.9763 H   0  0  0  0  0  0  0  0  0  0  0  0
    0.9783   -0.7052    0.0927 H   0  0  0  0  0  0  0  0  0  0  0  0
    1.8187   -2.1550    0.7681 H   0  0  0  0  0  0  0  0  0  0  0  0
    1.7254   -0.5193    2.3948 H   0  0  0  0  0  0  0  0  0  0  0  0
    2.6028    0.6693    4.3446 H   0  0  0  0  0  0  0  0  0  0  0  0
    4.7606    1.8353    4.2460 H   0  0  0  0  0  0  0  0  0  0  0  0
    6.6974    2.3637    1.0868 H   0  0  0  0  0  0  0  0  0  0  0  0
    7.0982    1.7360    4.0706 H   0  0  0  0  0  0  0  0  0  0  0  0
    9.0810    2.7567    5.0893 H   0  0  0  0  0  0  0  0  0  0  0  0
   12.4897    5.7238    3.3184 H   0  0  0  0  0  0  0  0  0  0  0  0
   12.9295    6.6401    1.0510 H   0  0  0  0  0  0  0  0  0  0  0  0
   11.5461    5.9042   -0.8761 H   0  0  0  0  0  0  0  0  0  0  0  0
    9.6735    4.3116   -0.5280 H   0  0  0  0  0  0  0  0  0  0  0  0
    5.2181    0.5940    0.1379 H   0  0  0  0  0  0  0  0  0  0  0  0
  1  2  1  0  0  0  0
  1 22  1  0  0  0  0
  1 23  1  0  0  0  0
  1 24  1  0  0  0  0
  2  3  1  0  0  0  0
  3  4  1  0  0  0  0
  3 21  2  0  0  0  0
  4  5  2  0  0  0  0
  4 25  1  0  0  0  0
  5  6  1  0  0  0  0
  5 26  1  0  0  0  0
  6  7  2  0  0  0  0
  6 27  1  0  0  0  0
  7  8  1  0  0  0  0
  7 21  1  0  0  0  0
  8  9  2  0  0  0  0
  8 28  1  0  0  0  0
  9 10  1  0  0  0  0
  9 29  1  0  0  0  0
 10 11  2  0  0  0  0
 10 20  1  0  0  0  0
 11 12  1  0  0  0  0
 11 30  1  0  0  0  0
 12 13  2  0  0  0  0
 12 14  1  0  0  0  0
 14 15  1  0  0  0  0
 14 19  2  0  0  0  0
 15 16  2  0  0  0  0
 15 31  1  0  0  0  0
 16 17  1  0  0  0  0
 16 32  1  0  0  0  0
 17 18  2  0  0  0  0
 17 33  1  0  0  0  0
 18 19  1  0  0  0  0
 18 34  1  0  0  0  0
 19 20  1  0  0  0  0
 21 35  1  0  0  0  0
M  END
>  <Energy>
51.8518

$$$$

 OpenBabel04232614443D

 30 31  0  0  0  0  0  0  0  0999 V2000
    0.8888    0.2728    0.1065 C   0  0  0  0  0  0  0  0  0  0  0  0
    2.3127    0.2254    0.0360 O   0  0  0  0  0  0  0  0  0  0  0  0
    2.9500    1.4197    0.2507 C   0  0  0  0  0  0  0  0  0  0  0  0
    2.4157    2.4271    1.0509 C   0  0  0  0  0  0  0  0  0  0  0  0
    3.1111    3.6231    1.2350 C   0  0  0  0  0  0  0  0  0  0  0  0
    4.3601    3.8380    0.6522 C   0  0  0  0  0  0  0  0  0  0  0  0
    5.0850    5.0411    0.8334 N   0  0  0  0  0  0  0  0  0  0  0  0
    4.8087    5.9937    1.8061 C   0  0  0  0  0  0  0  0  0  0  0  0
    3.9816    5.8632    2.7057 O   0  0  0  0  0  0  0  0  0  0  0  0
    5.5803    7.2646    1.7856 C   0  0  0  0  0  0  0  0  0  0  0  0
    5.3033    8.2072    2.7912 C   0  0  0  0  0  0  0  0  0  0  0  0
    5.9624    9.4356    2.8254 C   0  0  0  0  0  0  0  0  0  0  0  0
    6.9110    9.7365    1.8504 C   0  0  0  0  0  0  0  0  0  0  0  0
    7.1978    8.8087    0.8488 C   0  0  0  0  0  0  0  0  0  0  0  0
    6.5339    7.5802    0.8208 C   0  0  0  0  0  0  0  0  0  0  0  0
    6.8395    6.7151   -0.1586 F   0  0  0  0  0  0  0  0  0  0  0  0
    4.9030    2.8331   -0.1537 C   0  0  0  0  0  0  0  0  0  0  0  0
    4.2085    1.6243   -0.3342 C   0  0  0  0  0  0  0  0  0  0  0  0
    4.9466    0.4026   -1.3116 Cl  0  0  0  0  0  0  0  0  0  0  0  0
    0.4985   -0.6807   -0.2598 H   0  0  0  0  0  0  0  0  0  0  0  0
    0.4891    1.0684   -0.5327 H   0  0  0  0  0  0  0  0  0  0  0  0
    0.5451    0.3917    1.1394 H   0  0  0  0  0  0  0  0  0  0  0  0
    1.4651    2.3193    1.5599 H   0  0  0  0  0  0  0  0  0  0  0  0
    2.6231    4.3798    1.8409 H   0  0  0  0  0  0  0  0  0  0  0  0
    5.8971    5.1841    0.2469 H   0  0  0  0  0  0  0  0  0  0  0  0
    4.5575    7.9898    3.5574 H   0  0  0  0  0  0  0  0  0  0  0  0
    5.7309   10.1526    3.6106 H   0  0  0  0  0  0  0  0  0  0  0  0
    7.4236   10.6953    1.8740 H   0  0  0  0  0  0  0  0  0  0  0  0
    7.9346    9.0385    0.0851 H   0  0  0  0  0  0  0  0  0  0  0  0
    5.8730    2.9634   -0.6245 H   0  0  0  0  0  0  0  0  0  0  0  0
  1  2  1  0  0  0  0
  1 20  1  0  0  0  0
  1 21  1  0  0  0  0
  1 22  1  0  0  0  0
  2  3  1  0  0  0  0
  3  4  1  0  0  0  0
  3 18  2  0  0  0  0
  4  5  2  0  0  0  0
  4 23  1  0  0  0  0
  5  6  1  0  0  0  0
  5 24  1  0  0  0  0
  6  7  1  0  0  0  0
  6 17  2  0  0  0  0
  7  8  1  0  0  0  0
  7 25  1  0  0  0  0
  8  9  2  0  0  0  0
  8 10  1  0  0  0  0
 10 11  1  0  0  0  0
 10 15  2  0  0  0  0
 11 12  2  0  0  0  0
 11 26  1  0  0  0  0
 12 13  1  0  0  0  0
 12 27  1  0  0  0  0
 13 14  2  0  0  0  0
 13 28  1  0  0  0  0
 14 15  1  0  0  0  0
 14 29  1  0  0  0  0
 15 16  1  0  0  0  0
 17 18  1  0  0  0  0
 17 30  1  0  0  0  0
 18 19  1  0  0  0  0
M  END
>  <Energy>
41.6398

$$$$

 OpenBabel04232614443D

 26 27  0  0  0  0  0  0  0  0999 V2000
   -2.5254   -0.2754   -0.1275 C   0  0  0  0  0  0  0  0  0  0  0  0
   -1.0558   -0.0735   -0.1691 C   0  0  0  0  0  0  0  0  0  0  0  0
   -0.0999   -1.0578   -0.3087 C   0  0  0  0  0  0  0  0  0  0  0  0
    1.4593   -0.3648   -0.3066 S   0  0  0  0  0  0  0  0  0  0  0  0
    0.7633    1.2106   -0.1215 C   0  0  0  0  0  0  0  0  0  0  0  0
    1.5164    2.3410   -0.0415 N   0  0  0  0  0  0  0  0  0  0  0  0
    2.8725    2.3390   -0.1001 N   0  0  0  0  0  0  0  0  0  0  0  0
    3.4727    3.4744    0.0441 C   0  0  0  0  0  0  0  0  0  0  0  0
    4.9465    3.5407    0.0218 C   0  0  0  0  0  0  0  0  0  0  0  0
    5.6753    2.5820   -0.6910 C   0  0  0  0  0  0  0  0  0  0  0  0
    5.0647    1.6483   -1.4349 F   0  0  0  0  0  0  0  0  0  0  0  0
    7.0686    2.5811   -0.6804 C   0  0  0  0  0  0  0  0  0  0  0  0
    7.7563    3.5472    0.0472 C   0  0  0  0  0  0  0  0  0  0  0  0
    7.0429    4.5208    0.7482 C   0  0  0  0  0  0  0  0  0  0  0  0
    5.6409    4.5240    0.7336 C   0  0  0  0  0  0  0  0  0  0  0  0
    4.8425    5.7508    1.6526 Cl  0  0  0  0  0  0  0  0  0  0  0  0
   -0.5533    1.2158   -0.0612 N   0  0  0  0  0  0  0  0  0  0  0  0
   -2.7832   -1.3354   -0.2222 H   0  0  0  0  0  0  0  0  0  0  0  0
   -3.0061    0.2660   -0.9478 H   0  0  0  0  0  0  0  0  0  0  0  0
   -2.9327    0.0905    0.8197 H   0  0  0  0  0  0  0  0  0  0  0  0
   -0.2376   -2.1241   -0.4102 H   0  0  0  0  0  0  0  0  0  0  0  0
    0.9936    3.2053    0.0762 H   0  0  0  0  0  0  0  0  0  0  0  0
    2.9090    4.4073    0.2165 H   0  0  0  0  0  0  0  0  0  0  0  0
    7.6031    1.8190   -1.2407 H   0  0  0  0  0  0  0  0  0  0  0  0
    8.8437    3.5415    0.0681 H   0  0  0  0  0  0  0  0  0  0  0  0
    7.5885    5.2713    1.3170 H   0  0  0  0  0  0  0  0  0  0  0  0
  1  2  1  0  0  0  0
  1 18  1  0  0  0  0
  1 19  1  0  0  0  0
  1 20  1  0  0  0  0
  2  3  2  0  0  0  0
  2 17  1  0  0  0  0
  3  4  1  0  0  0  0
  3 21  1  0  0  0  0
  4  5  1  0  0  0  0
  5  6  1  0  0  0  0
  5 17  2  0  0  0  0
  6  7  1  0  0  0  0
  6 22  1  0  0  0  0
  7  8  2  0  0  0  0
  8  9  1  0  0  0  0
  8 23  1  0  0  0  0
  9 10  1  0  0  0  0
  9 15  2  0  0  0  0
 10 11  1  0  0  0  0
 10 12  2  0  0  0  0
 12 13  1  0  0  0  0
 12 24  1  0  0  0  0
 13 14  2  0  0  0  0
 13 25  1  0  0  0  0
 14 15  1  0  0  0  0
 14 26  1  0  0  0  0
 15 16  1  0  0  0  0
M  END
>  <Energy>
41.3381

$$$$

 OpenBabel04232614443D

 38 40  0  0  0  0  0  0  0  0999 V2000
    0.9897    0.4875   -2.4446 C   0  0  0  0  0  0  0  0  0  0  0  0
    2.0990    1.4656   -2.0584 C   0  0  0  0  0  0  0  0  0  0  0  0
    1.5114    2.6088   -1.2357 C   0  0  0  0  0  0  0  0  0  0  0  0
    3.0397    0.7269   -1.2657 O   0  0  0  0  0  0  0  0  0  0  0  0
    4.3631    0.9697   -1.4848 C   0  0  0  0  0  0  0  0  0  0  0  0
    4.9195    2.2266   -1.7374 C   0  0  0  0  0  0  0  0  0  0  0  0
    6.3103    2.3849   -1.8989 C   0  0  0  0  0  0  0  0  0  0  0  0
    7.1670    1.2871   -1.8163 C   0  0  0  0  0  0  0  0  0  0  0  0
    6.5972    0.0563   -1.5540 C   0  0  0  0  0  0  0  0  0  0  0  0
    5.2233   -0.1110   -1.3717 C   0  0  0  0  0  0  0  0  0  0  0  0
    4.8766   -1.5349   -1.0654 C   0  0  0  0  0  0  0  0  0  0  0  0
    6.2157   -2.2337   -1.0596 C   0  0  0  0  0  0  0  0  0  0  0  0
    6.5011   -3.5081   -0.7587 C   0  0  0  0  0  0  0  0  0  0  0  0
    5.4444   -4.4192   -0.3276 C   0  0  0  0  0  0  0  0  0  0  0  0
    4.7220   -5.1671   -1.2544 C   0  0  0  0  0  0  0  0  0  0  0  0
    3.6591   -5.9236   -0.7917 C   0  0  0  0  0  0  0  0  0  0  0  0
    3.2814   -5.9788    0.5046 N   0  0  0  0  0  0  0  0  0  0  0  0
    4.0053   -5.2512    1.3810 C   0  0  0  0  0  0  0  0  0  0  0  0
    5.0857   -4.4667    1.0192 C   0  0  0  0  0  0  0  0  0  0  0  0
    7.2725   -1.2356   -1.4005 C   0  0  0  0  0  0  0  0  0  0  0  0
    8.4653   -1.4424   -1.5129 O   0  0  0  0  0  0  0  0  0  0  0  0
    0.2247    0.9754   -3.0569 H   0  0  0  0  0  0  0  0  0  0  0  0
    0.5087    0.0664   -1.5543 H   0  0  0  0  0  0  0  0  0  0  0  0
    1.4009   -0.3560   -3.0095 H   0  0  0  0  0  0  0  0  0  0  0  0
    2.5500    1.8431   -2.9852 H   0  0  0  0  0  0  0  0  0  0  0  0
    1.2587    2.2764   -0.2232 H   0  0  0  0  0  0  0  0  0  0  0  0
    0.6153    3.0229   -1.7086 H   0  0  0  0  0  0  0  0  0  0  0  0
    2.2311    3.4245   -1.1254 H   0  0  0  0  0  0  0  0  0  0  0  0
    4.2989    3.1146   -1.7891 H   0  0  0  0  0  0  0  0  0  0  0  0
    6.7190    3.3770   -2.0786 H   0  0  0  0  0  0  0  0  0  0  0  0
    8.2403    1.3928   -1.9365 H   0  0  0  0  0  0  0  0  0  0  0  0
    4.2287   -1.9431   -1.8480 H   0  0  0  0  0  0  0  0  0  0  0  0
    4.3907   -1.6037   -0.0870 H   0  0  0  0  0  0  0  0  0  0  0  0
    7.5189   -3.8878   -0.7787 H   0  0  0  0  0  0  0  0  0  0  0  0
    4.9637   -5.1501   -2.3118 H   0  0  0  0  0  0  0  0  0  0  0  0
    3.0549   -6.5152   -1.4736 H   0  0  0  0  0  0  0  0  0  0  0  0
    3.6765   -5.3058    2.4148 H   0  0  0  0  0  0  0  0  0  0  0  0
    5.6175   -3.8888    1.7677 H   0  0  0  0  0  0  0  0  0  0  0  0
  1  2  1  0  0  0  0
  1 22  1  0  0  0  0
  1 23  1  0  0  0  0
  1 24  1  0  0  0  0
  2  3  1  0  0  0  0
  2  4  1  0  0  0  0
  2 25  1  0  0  0  0
  3 26  1  0  0  0  0
  3 27  1  0  0  0  0
  3 28  1  0  0  0  0
  4  5  1  0  0  0  0
  5  6  1  0  0  0  0
  5 10  2  0  0  0  0
  6  7  2  0  0  0  0
  6 29  1  0  0  0  0
  7  8  1  0  0  0  0
  7 30  1  0  0  0  0
  8  9  2  0  0  0  0
  8 31  1  0  0  0  0
  9 10  1  0  0  0  0
  9 20  1  0  0  0  0
 10 11  1  0  0  0  0
 11 12  1  0  0  0  0
 11 32  1  0  0  0  0
 11 33  1  0  0  0  0
 12 13  2  0  0  0  0
 12 20  1  0  0  0  0
 13 14  1  0  0  0  0
 13 34  1  0  0  0  0
 14 15  1  0  0  0  0
 14 19  2  0  0  0  0
 15 16  2  0  0  0  0
 15 35  1  0  0  0  0
 16 17  1  0  0  0  0
 16 36  1  0  0  0  0
 17 18  2  0  0  0  0
 18 19  1  0  0  0  0
 18 37  1  0  0  0  0
 19 38  1  0  0  0  0
 20 21  2  0  0  0  0
M  END
>  <Energy>
54.3533

$$$$

 OpenBabel04232614443D

 34 36  0  0  0  0  0  0  0  0999 V2000
    1.0784   -0.1474    0.1520 C   0  0  0  0  0  0  0  0  0  0  0  0
    2.5751   -0.1717    0.1476 C   0  0  0  0  0  0  0  0  0  0  0  0
    3.1885   -1.3664    0.2063 N   0  0  0  0  0  0  0  0  0  0  0  0
    4.5309   -1.3715    0.1350 C   0  0  0  0  0  0  0  0  0  0  0  0
    5.2181   -2.6020    0.1924 N   0  0  0  0  0  0  0  0  0  0  0  0
    4.3980   -3.7912    0.3640 C   0  0  0  0  0  0  0  0  0  0  0  0
    5.3156   -4.9992    0.3800 C   0  0  0  0  0  0  0  0  0  0  0  0
    6.2687   -5.1521    1.4034 C   0  0  0  0  0  0  0  0  0  0  0  0
    7.1359   -6.2455    1.4091 C   0  0  0  0  0  0  0  0  0  0  0  0
    7.0511   -7.1903    0.3943 C   0  0  0  0  0  0  0  0  0  0  0  0
    7.8853   -8.2367    0.3955 F   0  0  0  0  0  0  0  0  0  0  0  0
    6.1149   -7.0623   -0.6257 C   0  0  0  0  0  0  0  0  0  0  0  0
    5.2476   -5.9677   -0.6347 C   0  0  0  0  0  0  0  0  0  0  0  0
    5.2794   -0.1838    0.0237 C   0  0  0  0  0  0  0  0  0  0  0  0
    6.6940   -0.1165   -0.0537 C   0  0  0  0  0  0  0  0  0  0  0  0
    7.3489    1.1068   -0.1647 C   0  0  0  0  0  0  0  0  0  0  0  0
    6.6027    2.2770   -0.1803 C   0  0  0  0  0  0  0  0  0  0  0  0
    5.2098    2.2112   -0.0945 C   0  0  0  0  0  0  0  0  0  0  0  0
    4.5336    1.0003   -0.0007 C   0  0  0  0  0  0  0  0  0  0  0  0
    3.1995    1.0124    0.0560 N   0  0  0  0  0  0  0  0  0  0  0  0
    0.6650   -1.1593    0.1393 H   0  0  0  0  0  0  0  0  0  0  0  0
    0.7164    0.3837   -0.7352 H   0  0  0  0  0  0  0  0  0  0  0  0
    0.7150    0.3710    1.0440 H   0  0  0  0  0  0  0  0  0  0  0  0
    5.8184   -2.6828   -0.6229 H   0  0  0  0  0  0  0  0  0  0  0  0
    3.6728   -3.8876   -0.4535 H   0  0  0  0  0  0  0  0  0  0  0  0
    3.8441   -3.7613    1.3111 H   0  0  0  0  0  0  0  0  0  0  0  0
    6.3414   -4.4047    2.1918 H   0  0  0  0  0  0  0  0  0  0  0  0
    7.8769   -6.3625    2.1932 H   0  0  0  0  0  0  0  0  0  0  0  0
    6.0691   -7.8135   -1.4074 H   0  0  0  0  0  0  0  0  0  0  0  0
    4.5217   -5.8732   -1.4407 H   0  0  0  0  0  0  0  0  0  0  0  0
    7.2893   -1.0263   -0.0196 H   0  0  0  0  0  0  0  0  0  0  0  0
    8.4338    1.1448   -0.2301 H   0  0  0  0  0  0  0  0  0  0  0  0
    7.0979    3.2418   -0.2573 H   0  0  0  0  0  0  0  0  0  0  0  0
    4.6335    3.1342   -0.1021 H   0  0  0  0  0  0  0  0  0  0  0  0
  1  2  1  0  0  0  0
  1 21  1  0  0  0  0
  1 22  1  0  0  0  0
  1 23  1  0  0  0  0
  2  3  1  0  0  0  0
  2 20  2  0  0  0  0
  3  4  2  0  0  0  0
  4  5  1  0  0  0  0
  4 14  1  0  0  0  0
  5  6  1  0  0  0  0
  5 24  1  0  0  0  0
  6  7  1  0  0  0  0
  6 25  1  0  0  0  0
  6 26  1  0  0  0  0
  7  8  1  0  0  0  0
  7 13  2  0  0  0  0
  8  9  2  0  0  0  0
  8 27  1  0  0  0  0
  9 10  1  0  0  0  0
  9 28  1  0  0  0  0
 10 11  1  0  0  0  0
 10 12  2  0  0  0  0
 12 13  1  0  0  0  0
 12 29  1  0  0  0  0
 13 30  1  0  0  0  0
 14 15  1  0  0  0  0
 14 19  2  0  0  0  0
 15 16  2  0  0  0  0
 15 31  1  0  0  0  0
 16 17  1  0  0  0  0
 16 32  1  0  0  0  0
 17 18  2  0  0  0  0
 17 33  1  0  0  0  0
 18 19  1  0  0  0  0
 18 34  1  0  0  0  0
 19 20  1  0  0  0  0
M  END
>  <Energy>
-4.39161

$$$$

 OpenBabel04232614443D

 36 38  0  0  0  0  0  0  0  0999 V2000
    3.2977    0.8426   -1.3693 C   0  0  0  0  0  0  0  0  0  0  0  0
    2.7186   -0.4577   -1.3039 O   0  0  0  0  0  0  0  0  0  0  0  0
    3.5039   -1.4485   -0.7804 C   0  0  0  0  0  0  0  0  0  0  0  0
    4.8155   -1.2896   -0.3496 C   0  0  0  0  0  0  0  0  0  0  0  0
    5.5034   -2.3776    0.1863 C   0  0  0  0  0  0  0  0  0  0  0  0
    4.8970   -3.6424    0.3049 C   0  0  0  0  0  0  0  0  0  0  0  0
    5.6987   -4.6943    0.9854 C   0  0  0  0  0  0  0  0  0  0  0  0
    6.6864   -4.2994    1.5970 O   0  0  0  0  0  0  0  0  0  0  0  0
    5.3147   -6.0295    0.8586 N   0  0  0  0  0  0  0  0  0  0  0  0
    5.9982   -7.0981    1.5054 C   0  0  0  0  0  0  0  0  0  0  0  0
    6.8814   -6.8717    2.5625 C   0  0  0  0  0  0  0  0  0  0  0  0
    7.6684   -7.8913    3.0845 C   0  0  0  0  0  0  0  0  0  0  0  0
    7.5340   -9.1928    2.6154 C   0  0  0  0  0  0  0  0  0  0  0  0
    8.3587  -10.2036    3.1264 C   0  0  0  0  0  0  0  0  0  0  0  0
    8.1725  -11.5257    2.7410 C   0  0  0  0  0  0  0  0  0  0  0  0
    7.1623  -11.8439    1.8377 C   0  0  0  0  0  0  0  0  0  0  0  0
    6.3709  -10.8325    1.2773 C   0  0  0  0  0  0  0  0  0  0  0  0
    6.5515   -9.4846    1.6418 C   0  0  0  0  0  0  0  0  0  0  0  0
    5.8016   -8.4195    1.0776 C   0  0  0  0  0  0  0  0  0  0  0  0
    3.5825   -3.8041   -0.1314 C   0  0  0  0  0  0  0  0  0  0  0  0
    2.8964   -2.7072   -0.6756 C   0  0  0  0  0  0  0  0  0  0  0  0
    2.5486    1.5258   -1.7798 H   0  0  0  0  0  0  0  0  0  0  0  0
    4.1632    0.8546   -2.0409 H   0  0  0  0  0  0  0  0  0  0  0  0
    3.5687    1.2081   -0.3723 H   0  0  0  0  0  0  0  0  0  0  0  0
    5.3356   -0.3391   -0.3967 H   0  0  0  0  0  0  0  0  0  0  0  0
    6.5232   -2.2242    0.5375 H   0  0  0  0  0  0  0  0  0  0  0  0
    4.6446   -6.2748    0.1483 H   0  0  0  0  0  0  0  0  0  0  0  0
    6.9957   -5.8921    3.0154 H   0  0  0  0  0  0  0  0  0  0  0  0
    8.3782   -7.6480    3.8713 H   0  0  0  0  0  0  0  0  0  0  0  0
    9.1496   -9.9617    3.8334 H   0  0  0  0  0  0  0  0  0  0  0  0
    8.8082  -12.3026    3.1566 H   0  0  0  0  0  0  0  0  0  0  0  0
    6.9943  -12.8827    1.5668 H   0  0  0  0  0  0  0  0  0  0  0  0
    5.6008  -11.1111    0.5619 H   0  0  0  0  0  0  0  0  0  0  0  0
    5.0913   -8.6368    0.2851 H   0  0  0  0  0  0  0  0  0  0  0  0
    3.0573   -4.7473   -0.0238 H   0  0  0  0  0  0  0  0  0  0  0  0
    1.8654   -2.8259   -1.0024 H   0  0  0  0  0  0  0  0  0  0  0  0
  1  2  1  0  0  0  0
  1 22  1  0  0  0  0
  1 23  1  0  0  0  0
  1 24  1  0  0  0  0
  2  3  1  0  0  0  0
  3  4  1  0  0  0  0
  3 21  2  0  0  0  0
  4  5  2  0  0  0  0
  4 25  1  0  0  0  0
  5  6  1  0  0  0  0
  5 26  1  0  0  0  0
  6  7  1  0  0  0  0
  6 20  2  0  0  0  0
  7  8  2  0  0  0  0
  7  9  1  0  0  0  0
  9 10  1  0  0  0  0
  9 27  1  0  0  0  0
 10 11  1  0  0  0  0
 10 19  2  0  0  0  0
 11 12  2  0  0  0  0
 11 28  1  0  0  0  0
 12 13  1  0  0  0  0
 12 29  1  0  0  0  0
 13 14  1  0  0  0  0
 13 18  2  0  0  0  0
 14 15  2  0  0  0  0
 14 30  1  0  0  0  0
 15 16  1  0  0  0  0
 15 31  1  0  0  0  0
 16 17  2  0  0  0  0
 16 32  1  0  0  0  0
 17 18  1  0  0  0  0
 17 33  1  0  0  0  0
 18 19  1  0  0  0  0
 19 34  1  0  0  0  0
 20 21  1  0  0  0  0
 20 35  1  0  0  0  0
 21 36  1  0  0  0  0
M  END
>  <Energy>
55.9387

$$$$

 OpenBabel04232614443D

 45 46  0  0  1  0  0  0  0  0999 V2000
    1.0601    7.3426   -3.1041 C   0  0  0  0  0  0  0  0  0  0  0  0
    2.5781    7.2694   -3.1191 C   0  0  0  0  0  0  0  0  0  0  0  0
    3.0652    5.8202   -3.1393 C   0  0  0  0  0  0  0  0  0  0  0  0
    4.5907    5.7521   -3.1536 C   0  0  0  0  0  0  0  0  0  0  0  0
    5.0966    4.3076   -3.1752 C   0  0  0  0  0  0  0  0  0  0  0  0
    6.6258    4.2859   -3.1860 C   0  0  0  0  0  0  0  0  0  0  0  0
    7.1885    2.8592   -3.2097 C   0  0  0  0  0  0  0  0  0  0  0  0
    8.7265    2.8067   -3.2090 C   0  0  3  0  0  0  0  0  0  0  0  0
    9.2240    1.3485   -3.2218 C   0  0  0  0  0  0  0  0  0  0  0  0
    9.2883    3.4995   -2.0887 N   0  0  0  0  0  0  0  0  0  0  0  0
   10.5057    4.0596   -2.4473 C   0  0  0  0  0  0  0  0  0  0  0  0
   11.3351    4.4170   -1.6259 O   0  0  0  0  0  0  0  0  0  0  0  0
   10.5467    4.0513   -3.8518 N   0  0  0  0  0  0  0  0  0  0  0  0
   11.7108    4.0736   -4.6543 C   0  0  0  0  0  0  0  0  0  0  0  0
   12.9879    3.9548   -4.0902 C   0  0  0  0  0  0  0  0  0  0  0  0
   14.1196    3.8433   -4.8977 C   0  0  0  0  0  0  0  0  0  0  0  0
   13.9993    3.8788   -6.2837 C   0  0  0  0  0  0  0  0  0  0  0  0
   12.7437    4.0353   -6.8628 C   0  0  0  0  0  0  0  0  0  0  0  0
   11.6047    4.1300   -6.0543 C   0  0  0  0  0  0  0  0  0  0  0  0
    9.3221    3.5093   -4.3637 N   0  0  0  0  0  0  0  0  0  0  0  0
    0.7300    8.3860   -3.0932 H   0  0  0  0  0  0  0  0  0  0  0  0
    0.6535    6.8477   -2.2164 H   0  0  0  0  0  0  0  0  0  0  0  0
    0.6365    6.8608   -3.9910 H   0  0  0  0  0  0  0  0  0  0  0  0
    2.9724    7.7840   -2.2349 H   0  0  0  0  0  0  0  0  0  0  0  0
    2.9560    7.8029   -3.9993 H   0  0  0  0  0  0  0  0  0  0  0  0
    2.6660    5.3104   -4.0243 H   0  0  0  0  0  0  0  0  0  0  0  0
    2.6816    5.2910   -2.2587 H   0  0  0  0  0  0  0  0  0  0  0  0
    4.9881    6.2649   -2.2689 H   0  0  0  0  0  0  0  0  0  0  0  0
    4.9728    6.2855   -4.0327 H   0  0  0  0  0  0  0  0  0  0  0  0
    4.7101    3.7910   -4.0619 H   0  0  0  0  0  0  0  0  0  0  0  0
    4.7226    3.7699   -2.2954 H   0  0  0  0  0  0  0  0  0  0  0  0
    6.9913    4.8111   -2.2957 H   0  0  0  0  0  0  0  0  0  0  0  0
    6.9838    4.8413   -4.0601 H   0  0  0  0  0  0  0  0  0  0  0  0
    6.8024    2.3336   -4.0934 H   0  0  0  0  0  0  0  0  0  0  0  0
    6.8111    2.3180   -2.3319 H   0  0  0  0  0  0  0  0  0  0  0  0
    8.9555    0.8325   -2.2936 H   0  0  0  0  0  0  0  0  0  0  0  0
   10.3184    1.2934   -3.3027 H   0  0  0  0  0  0  0  0  0  0  0  0
    8.8068    0.7886   -4.0659 H   0  0  0  0  0  0  0  0  0  0  0  0
    9.1485    3.2416   -1.1233 H   0  0  0  0  0  0  0  0  0  0  0  0
   13.1266    3.8950   -3.0136 H   0  0  0  0  0  0  0  0  0  0  0  0
   15.0989    3.7137   -4.4364 H   0  0  0  0  0  0  0  0  0  0  0  0
   14.8821    3.7882   -6.9086 H   0  0  0  0  0  0  0  0  0  0  0  0
   12.6444    4.0788   -7.9443 H   0  0  0  0  0  0  0  0  0  0  0  0
   10.6393    4.2609   -6.5311 H   0  0  0  0  0  0  0  0  0  0  0  0
    9.5488    2.8270   -5.0844 H   0  0  0  0  0  0  0  0  0  0  0  0
  1  2  1  0  0  0  0
  1 21  1  0  0  0  0
  1 22  1  0  0  0  0
  1 23  1  0  0  0  0
  2  3  1  0  0  0  0
  2 24  1  0  0  0  0
  2 25  1  0  0  0  0
  3  4  1  0  0  0  0
  3 26  1  0  0  0  0
  3 27  1  0  0  0  0
  4  5  1  0  0  0  0
  4 28  1  0  0  0  0
  4 29  1  0  0  0  0
  5  6  1  0  0  0  0
  5 30  1  0  0  0  0
  5 31  1  0  0  0  0
  6  7  1  0  0  0  0
  6 32  1  0  0  0  0
  6 33  1  0  0  0  0
  7  8  1  0  0  0  0
  7 34  1  0  0  0  0
  7 35  1  0  0  0  0
  8  9  1  0  0  0  0
  8 10  1  0  0  0  0
  8 20  1  0  0  0  0
  9 36  1  0  0  0  0
  9 37  1  0  0  0  0
  9 38  1  0  0  0  0
 10 11  1  0  0  0  0
 10 39  1  0  0  0  0
 11 12  2  0  0  0  0
 11 13  1  0  0  0  0
 13 14  1  0  0  0  0
 13 20  1  0  0  0  0
 14 15  1  0  0  0  0
 14 19  2  0  0  0  0
 15 16  2  0  0  0  0
 15 40  1  0  0  0  0
 16 17  1  0  0  0  0
 16 41  1  0  0  0  0
 17 18  2  0  0  0  0
 17 42  1  0  0  0  0
 18 19  1  0  0  0  0
 18 43  1  0  0  0  0
 19 44  1  0  0  0  0
 20 45  1  0  0  0  0
M  END
>  <Energy>
-6.59162

$$$$

 OpenBabel04232614443D

 25 26  0  0  0  0  0  0  0  0999 V2000
   -1.5923   -0.1543   -0.4294 Br  0  0  0  0  0  0  0  0  0  0  0  0
    0.2925   -0.1190   -0.2934 C   0  0  0  0  0  0  0  0  0  0  0  0
    0.9591   -1.1283    0.3962 C   0  0  0  0  0  0  0  0  0  0  0  0
    2.3546   -1.0898    0.5176 C   0  0  0  0  0  0  0  0  0  0  0  0
    3.0891   -0.0461   -0.0549 C   0  0  0  0  0  0  0  0  0  0  0  0
    4.8567    0.1518    0.1278 S   0  0  0  0  0  0  0  0  0  0  0  0
    5.4745   -1.5715    0.0975 C   0  0  0  0  0  0  0  0  0  0  0  0
    6.9869   -1.6378    0.1612 C   0  0  0  0  0  0  0  0  0  0  0  0
    7.7743   -1.1203   -0.8694 C   0  0  0  0  0  0  0  0  0  0  0  0
    9.1612   -1.2037   -0.7697 C   0  0  0  0  0  0  0  0  0  0  0  0
    9.7309   -1.8061    0.3445 C   0  0  0  0  0  0  0  0  0  0  0  0
    8.8827   -2.3046    1.3191 C   0  0  0  0  0  0  0  0  0  0  0  0
    7.5333   -2.2382    1.2502 N   0  0  0  0  0  0  0  0  0  0  0  0
    2.3997    0.9623   -0.7445 C   0  0  0  0  0  0  0  0  0  0  0  0
    1.0074    0.9278   -0.8685 C   0  0  0  0  0  0  0  0  0  0  0  0
    0.4038   -1.9387    0.8593 H   0  0  0  0  0  0  0  0  0  0  0  0
    2.8396   -1.8717    1.0935 H   0  0  0  0  0  0  0  0  0  0  0  0
    5.1321   -2.0765   -0.8122 H   0  0  0  0  0  0  0  0  0  0  0  0
    5.0673   -2.1106    0.9587 H   0  0  0  0  0  0  0  0  0  0  0  0
    7.3194   -0.6473   -1.7341 H   0  0  0  0  0  0  0  0  0  0  0  0
    9.7927   -0.7965   -1.5549 H   0  0  0  0  0  0  0  0  0  0  0  0
   10.8057   -1.8848    0.4524 H   0  0  0  0  0  0  0  0  0  0  0  0
    9.2771   -2.7853    2.2097 H   0  0  0  0  0  0  0  0  0  0  0  0
    2.9433    1.7979   -1.1821 H   0  0  0  0  0  0  0  0  0  0  0  0
    0.4958    1.7265   -1.3999 H   0  0  0  0  0  0  0  0  0  0  0  0
  1  2  1  0  0  0  0
  2  3  1  0  0  0  0
  2 15  2  0  0  0  0
  3  4  2  0  0  0  0
  3 16  1  0  0  0  0
  4  5  1  0  0  0  0
  4 17  1  0  0  0  0
  5  6  1  0  0  0  0
  5 14  2  0  0  0  0
  6  7  1  0  0  0  0
  7  8  1  0  0  0  0
  7 18  1  0  0  0  0
  7 19  1  0  0  0  0
  8  9  1  0  0  0  0
  8 13  2  0  0  0  0
  9 10  2  0  0  0  0
  9 20  1  0  0  0  0
 10 11  1  0  0  0  0
 10 21  1  0  0  0  0
 11 12  2  0  0  0  0
 11 22  1  0  0  0  0
 12 13  1  0  0  0  0
 12 23  1  0  0  0  0
 14 15  1  0  0  0  0
 14 24  1  0  0  0  0
 15 25  1  0  0  0  0
M  END
>  <Energy>
45.8625

$$$$

 OpenBabel04232614443D

 41 42  0  0  0  0  0  0  0  0999 V2000
    1.3368    0.7883   -0.4090 C   0  0  0  0  0  0  0  0  0  0  0  0
    2.4934   -0.0061    0.1807 C   0  0  0  0  0  0  0  0  0  0  0  0
    2.9382   -1.0971   -0.6988 N   0  0  0  0  0  0  0  0  0  0  0  0
    1.9853   -2.1646   -1.0487 C   0  0  0  0  0  0  0  0  0  0  0  0
    2.0186   -3.3399   -0.0788 C   0  0  0  0  0  0  0  0  0  0  0  0
    4.2958   -1.4448   -0.6641 C   0  0  0  0  0  0  0  0  0  0  0  0
    5.1171   -1.1616    0.4367 C   0  0  0  0  0  0  0  0  0  0  0  0
    6.4871   -1.4521    0.4327 C   0  0  0  0  0  0  0  0  0  0  0  0
    7.0836   -2.0607   -0.6723 C   0  0  0  0  0  0  0  0  0  0  0  0
    8.5300   -2.3127   -0.7399 C   0  0  0  0  0  0  0  0  0  0  0  0
    9.2832   -2.6176    0.3275 C   0  0  0  0  0  0  0  0  0  0  0  0
   10.7487   -2.8269    0.1744 C   0  0  0  0  0  0  0  0  0  0  0  0
   11.3638   -2.4540   -0.8167 O   0  0  0  0  0  0  0  0  0  0  0  0
   11.4603   -3.4655    1.3013 C   0  0  0  0  0  0  0  0  0  0  0  0
   10.8698   -4.4168    2.1375 C   0  0  0  0  0  0  0  0  0  0  0  0
   11.6149   -4.9704    3.1768 C   0  0  0  0  0  0  0  0  0  0  0  0
   12.9257   -4.5576    3.3399 C   0  0  0  0  0  0  0  0  0  0  0  0
   13.5325   -3.6501    2.5410 N   0  0  0  0  0  0  0  0  0  0  0  0
   12.7888   -3.1314    1.5322 C   0  0  0  0  0  0  0  0  0  0  0  0
    6.2788   -2.3650   -1.7727 C   0  0  0  0  0  0  0  0  0  0  0  0
    4.9058   -2.0683   -1.7625 C   0  0  0  0  0  0  0  0  0  0  0  0
    1.2069    1.7218    0.1501 H   0  0  0  0  0  0  0  0  0  0  0  0
    0.3948    0.2377   -0.3457 H   0  0  0  0  0  0  0  0  0  0  0  0
    1.5206    1.0440   -1.4575 H   0  0  0  0  0  0  0  0  0  0  0  0
    2.2273   -0.3905    1.1719 H   0  0  0  0  0  0  0  0  0  0  0  0
    3.3044    0.7224    0.3121 H   0  0  0  0  0  0  0  0  0  0  0  0
    2.1711   -2.5241   -2.0673 H   0  0  0  0  0  0  0  0  0  0  0  0
    0.9643   -1.7695   -1.0688 H   0  0  0  0  0  0  0  0  0  0  0  0
    2.9925   -3.8399   -0.0779 H   0  0  0  0  0  0  0  0  0  0  0  0
    1.2696   -4.0848   -0.3694 H   0  0  0  0  0  0  0  0  0  0  0  0
    1.8005   -3.0198    0.9446 H   0  0  0  0  0  0  0  0  0  0  0  0
    4.7072   -0.7058    1.3321 H   0  0  0  0  0  0  0  0  0  0  0  0
    7.0711   -1.1688    1.3033 H   0  0  0  0  0  0  0  0  0  0  0  0
    8.9827   -2.2441   -1.7280 H   0  0  0  0  0  0  0  0  0  0  0  0
    8.8608   -2.7067    1.3200 H   0  0  0  0  0  0  0  0  0  0  0  0
    9.8490   -4.7530    1.9826 H   0  0  0  0  0  0  0  0  0  0  0  0
   11.1844   -5.7130    3.8396 H   0  0  0  0  0  0  0  0  0  0  0  0
   13.5468   -4.9578    4.1370 H   0  0  0  0  0  0  0  0  0  0  0  0
   13.3080   -2.4099    0.9051 H   0  0  0  0  0  0  0  0  0  0  0  0
    6.7063   -2.8247   -2.6602 H   0  0  0  0  0  0  0  0  0  0  0  0
    4.3266   -2.2917   -2.6540 H   0  0  0  0  0  0  0  0  0  0  0  0
  1  2  1  0  0  0  0
  1 22  1  0  0  0  0
  1 23  1  0  0  0  0
  1 24  1  0  0  0  0
  2  3  1  0  0  0  0
  2 25  1  0  0  0  0
  2 26  1  0  0  0  0
  3  4  1  0  0  0  0
  3  6  1  0  0  0  0
  4  5  1  0  0  0  0
  4 27  1  0  0  0  0
  4 28  1  0  0  0  0
  5 29  1  0  0  0  0
  5 30  1  0  0  0  0
  5 31  1  0  0  0  0
  6  7  1  0  0  0  0
  6 21  2  0  0  0  0
  7  8  2  0  0  0  0
  7 32  1  0  0  0  0
  8  9  1  0  0  0  0
  8 33  1  0  0  0  0
  9 10  1  0  0  0  0
  9 20  2  0  0  0  0
 10 11  2  0  0  0  0
 10 34  1  0  0  0  0
 11 12  1  0  0  0  0
 11 35  1  0  0  0  0
 12 13  2  0  0  0  0
 12 14  1  0  0  0  0
 14 15  1  0  0  0  0
 14 19  2  0  0  0  0
 15 16  2  0  0  0  0
 15 36  1  0  0  0  0
 16 17  1  0  0  0  0
 16 37  1  0  0  0  0
 17 18  2  0  0  0  0
 17 38  1  0  0  0  0
 18 19  1  0  0  0  0
 19 39  1  0  0  0  0
 20 21  1  0  0  0  0
 20 40  1  0  0  0  0
 21 41  1  0  0  0  0
M  END
>  <Energy>
61.8994

$$$$

 OpenBabel04232614443D

 34 35  0  0  0  0  0  0  0  0999 V2000
    1.1529    0.0618    0.1597 C   0  0  0  0  0  0  0  0  0  0  0  0
    2.6066    0.0291    0.1547 N   0  0  0  0  0  0  0  0  0  0  0  0
    3.2692    0.5333   -1.0463 C   0  0  0  0  0  0  0  0  0  0  0  0
    3.5927    2.0129   -1.0077 C   0  0  0  0  0  0  0  0  0  0  0  0
    3.8622    2.6990    0.1868 C   0  0  0  0  0  0  0  0  0  0  0  0
    4.2476    4.0422    0.1698 C   0  0  0  0  0  0  0  0  0  0  0  0
    4.3678    4.7208   -1.0406 C   0  0  0  0  0  0  0  0  0  0  0  0
    4.0931    4.0597   -2.2348 C   0  0  0  0  0  0  0  0  0  0  0  0
    3.7118    2.7157   -2.2189 C   0  0  0  0  0  0  0  0  0  0  0  0
    3.2100   -0.7298    1.1531 C   0  0  0  0  0  0  0  0  0  0  0  0
    2.5302   -1.3614    1.9554 O   0  0  0  0  0  0  0  0  0  0  0  0
    4.5888   -0.6747    1.1782 N   0  0  0  0  0  0  0  0  0  0  0  0
    5.4333   -1.3906    2.0566 C   0  0  0  0  0  0  0  0  0  0  0  0
    5.0174   -2.5097    2.7849 C   0  0  0  0  0  0  0  0  0  0  0  0
    5.8877   -3.1479    3.6744 C   0  0  0  0  0  0  0  0  0  0  0  0
    7.1864   -2.6759    3.8300 C   0  0  0  0  0  0  0  0  0  0  0  0
    8.2483   -3.4427    4.9449 Cl  0  0  0  0  0  0  0  0  0  0  0  0
    7.6279   -1.5837    3.0870 C   0  0  0  0  0  0  0  0  0  0  0  0
    6.7555   -0.9481    2.1958 C   0  0  0  0  0  0  0  0  0  0  0  0
    0.7821    0.8801   -0.4637 H   0  0  0  0  0  0  0  0  0  0  0  0
    0.7826    0.2010    1.1808 H   0  0  0  0  0  0  0  0  0  0  0  0
    0.7819   -0.8950   -0.2222 H   0  0  0  0  0  0  0  0  0  0  0  0
    2.6108    0.3184   -1.8975 H   0  0  0  0  0  0  0  0  0  0  0  0
    4.1975   -0.0194   -1.2255 H   0  0  0  0  0  0  0  0  0  0  0  0
    3.7719    2.2008    1.1496 H   0  0  0  0  0  0  0  0  0  0  0  0
    4.4577    4.5581    1.1031 H   0  0  0  0  0  0  0  0  0  0  0  0
    4.6741    5.7638   -1.0525 H   0  0  0  0  0  0  0  0  0  0  0  0
    4.1818    4.5895   -3.1803 H   0  0  0  0  0  0  0  0  0  0  0  0
    3.5125    2.2181   -3.1660 H   0  0  0  0  0  0  0  0  0  0  0  0
    5.0051    0.1145    0.7094 H   0  0  0  0  0  0  0  0  0  0  0  0
    4.0146   -2.9138    2.6815 H   0  0  0  0  0  0  0  0  0  0  0  0
    5.5364   -4.0051    4.2425 H   0  0  0  0  0  0  0  0  0  0  0  0
    8.6437   -1.2163    3.2042 H   0  0  0  0  0  0  0  0  0  0  0  0
    7.1189   -0.0908    1.6352 H   0  0  0  0  0  0  0  0  0  0  0  0
  1  2  1  0  0  0  0
  1 20  1  0  0  0  0
  1 21  1  0  0  0  0
  1 22  1  0  0  0  0
  2  3  1  0  0  0  0
  2 10  1  0  0  0  0
  3  4  1  0  0  0  0
  3 23  1  0  0  0  0
  3 24  1  0  0  0  0
  4  5  1  0  0  0  0
  4  9  2  0  0  0  0
  5  6  2  0  0  0  0
  5 25  1  0  0  0  0
  6  7  1  0  0  0  0
  6 26  1  0  0  0  0
  7  8  2  0  0  0  0
  7 27  1  0  0  0  0
  8  9  1  0  0  0  0
  8 28  1  0  0  0  0
  9 29  1  0  0  0  0
 10 11  2  0  0  0  0
 10 12  1  0  0  0  0
 12 13  1  0  0  0  0
 12 30  1  0  0  0  0
 13 14  1  0  0  0  0
 13 19  2  0  0  0  0
 14 15  2  0  0  0  0
 14 31  1  0  0  0  0
 15 16  1  0  0  0  0
 15 32  1  0  0  0  0
 16 17  1  0  0  0  0
 16 18  2  0  0  0  0
 18 19  1  0  0  0  0
 18 33  1  0  0  0  0
 19 34  1  0  0  0  0
M  END
>  <Energy>
-30.3311

$$$$

 OpenBabel04232614443D

 41 43  0  0  0  0  0  0  0  0999 V2000
    2.1177    1.0689   -1.8397 C   0  0  0  0  0  0  0  0  0  0  0  0
    0.6553    0.8976   -1.5553 C   0  0  0  0  0  0  0  0  0  0  0  0
   -0.0005    1.6861   -0.6041 C   0  0  0  0  0  0  0  0  0  0  0  0
   -1.3675    1.5046   -0.3409 C   0  0  0  0  0  0  0  0  0  0  0  0
   -2.0874    0.5282   -1.0299 C   0  0  0  0  0  0  0  0  0  0  0  0
   -3.4090    0.2213   -0.8637 O   0  0  0  0  0  0  0  0  0  0  0  0
   -4.1744    1.0291    0.0293 C   0  0  0  0  0  0  0  0  0  0  0  0
   -5.6056    0.4891    0.0230 C   0  0  0  0  0  0  0  0  0  0  0  0
   -6.5177    1.3673    0.7198 N   0  0  0  0  0  0  0  0  0  0  0  0
   -7.2518    2.3568    0.1268 C   0  0  0  0  0  0  0  0  0  0  0  0
   -7.7969    3.1514    1.0181 N   0  0  0  0  0  0  0  0  0  0  0  0
   -7.4359    2.6252    2.2345 C   0  0  0  0  0  0  0  0  0  0  0  0
   -7.6893    3.1061    3.5253 C   0  0  0  0  0  0  0  0  0  0  0  0
   -7.2125    2.3929    4.6437 C   0  0  0  0  0  0  0  0  0  0  0  0
   -7.4147    2.9970    6.0073 C   0  0  0  0  0  0  0  0  0  0  0  0
   -6.5595    1.1551    4.4615 C   0  0  0  0  0  0  0  0  0  0  0  0
   -6.1795    0.2632    5.6176 C   0  0  0  0  0  0  0  0  0  0  0  0
   -6.2753    0.6821    3.1624 C   0  0  0  0  0  0  0  0  0  0  0  0
   -6.6962    1.4586    2.0776 C   0  0  0  0  0  0  0  0  0  0  0  0
   -1.4353   -0.2505   -1.9861 C   0  0  0  0  0  0  0  0  0  0  0  0
   -0.0757   -0.0703   -2.2498 C   0  0  0  0  0  0  0  0  0  0  0  0
    2.5669    1.8349   -1.2005 H   0  0  0  0  0  0  0  0  0  0  0  0
    2.2676    1.3668   -2.8829 H   0  0  0  0  0  0  0  0  0  0  0  0
    2.6496    0.1276   -1.6573 H   0  0  0  0  0  0  0  0  0  0  0  0
    0.5466    2.4481   -0.0526 H   0  0  0  0  0  0  0  0  0  0  0  0
   -1.8298    2.1361    0.4086 H   0  0  0  0  0  0  0  0  0  0  0  0
   -4.1628    2.0731   -0.3097 H   0  0  0  0  0  0  0  0  0  0  0  0
   -3.7631    0.9733    1.0448 H   0  0  0  0  0  0  0  0  0  0  0  0
   -5.6517   -0.5038    0.4838 H   0  0  0  0  0  0  0  0  0  0  0  0
   -5.9663    0.3700   -1.0058 H   0  0  0  0  0  0  0  0  0  0  0  0
   -7.3260    2.4729   -0.9470 H   0  0  0  0  0  0  0  0  0  0  0  0
   -8.2325    4.0388    3.6366 H   0  0  0  0  0  0  0  0  0  0  0  0
   -7.7762    4.0292    5.9371 H   0  0  0  0  0  0  0  0  0  0  0  0
   -6.4606    3.0393    6.5451 H   0  0  0  0  0  0  0  0  0  0  0  0
   -8.1404    2.4182    6.5837 H   0  0  0  0  0  0  0  0  0  0  0  0
   -6.2595    0.7597    6.5859 H   0  0  0  0  0  0  0  0  0  0  0  0
   -5.1419   -0.0749    5.5106 H   0  0  0  0  0  0  0  0  0  0  0  0
   -6.8369   -0.6102    5.6351 H   0  0  0  0  0  0  0  0  0  0  0  0
   -5.7490   -0.2560    3.0144 H   0  0  0  0  0  0  0  0  0  0  0  0
   -1.9895   -1.0107   -2.5311 H   0  0  0  0  0  0  0  0  0  0  0  0
    0.4093   -0.6954   -2.9955 H   0  0  0  0  0  0  0  0  0  0  0  0
  1  2  1  0  0  0  0
  1 22  1  0  0  0  0
  1 23  1  0  0  0  0
  1 24  1  0  0  0  0
  2  3  1  0  0  0  0
  2 21  2  0  0  0  0
  3  4  2  0  0  0  0
  3 25  1  0  0  0  0
  4  5  1  0  0  0  0
  4 26  1  0  0  0  0
  5  6  1  0  0  0  0
  5 20  2  0  0  0  0
  6  7  1  0  0  0  0
  7  8  1  0  0  0  0
  7 27  1  0  0  0  0
  7 28  1  0  0  0  0
  8  9  1  0  0  0  0
  8 29  1  0  0  0  0
  8 30  1  0  0  0  0
  9 10  1  0  0  0  0
  9 19  1  0  0  0  0
 10 11  2  0  0  0  0
 10 31  1  0  0  0  0
 11 12  1  0  0  0  0
 12 13  1  0  0  0  0
 12 19  2  0  0  0  0
 13 14  2  0  0  0  0
 13 32  1  0  0  0  0
 14 15  1  0  0  0  0
 14 16  1  0  0  0  0
 15 33  1  0  0  0  0
 15 34  1  0  0  0  0
 15 35  1  0  0  0  0
 16 17  1  0  0  0  0
 16 18  2  0  0  0  0
 17 36  1  0  0  0  0
 17 37  1  0  0  0  0
 17 38  1  0  0  0  0
 18 19  1  0  0  0  0
 18 39  1  0  0  0  0
 20 21  1  0  0  0  0
 20 40  1  0  0  0  0
 21 41  1  0  0  0  0
M  END
>  <Energy>
42.9211

$$$$

 OpenBabel04232614443D

 37 39  0  0  0  0  0  0  0  0999 V2000
    1.3232   -0.5202    0.2654 C   0  0  0  0  0  0  0  0  0  0  0  0
    2.4852    0.1840   -0.1577 O   0  0  0  0  0  0  0  0  0  0  0  0
    3.0719    1.0096    0.7603 C   0  0  0  0  0  0  0  0  0  0  0  0
    2.6028    1.2685    2.0417 C   0  0  0  0  0  0  0  0  0  0  0  0
    3.3121    2.1348    2.8804 C   0  0  0  0  0  0  0  0  0  0  0  0
    4.4845    2.7556    2.4779 C   0  0  0  0  0  0  0  0  0  0  0  0
    5.1039    3.5619    3.3537 N   0  0  0  0  0  0  0  0  0  0  0  0
    6.2505    4.1669    2.9776 C   0  0  0  0  0  0  0  0  0  0  0  0
    6.9296    5.0447    3.9849 C   0  0  0  0  0  0  0  0  0  0  0  0
    6.8072    3.9928    1.7215 C   0  0  0  0  0  0  0  0  0  0  0  0
    6.1883    3.1303    0.8119 C   0  0  0  0  0  0  0  0  0  0  0  0
    6.7354    2.9421   -0.4882 N   0  0  0  0  0  0  0  0  0  0  0  0
    8.1065    2.9258   -0.8341 C   0  0  0  0  0  0  0  0  0  0  0  0
    8.5173    3.3469   -2.1056 C   0  0  0  0  0  0  0  0  0  0  0  0
    9.8682    3.3105   -2.4703 C   0  0  0  0  0  0  0  0  0  0  0  0
   10.8247    2.8337   -1.5748 C   0  0  0  0  0  0  0  0  0  0  0  0
   10.4176    2.3843   -0.3253 C   0  0  0  0  0  0  0  0  0  0  0  0
   11.3107    1.8947    0.5817 O   0  0  0  0  0  0  0  0  0  0  0  0
    9.0759    2.4163    0.0414 C   0  0  0  0  0  0  0  0  0  0  0  0
    4.9732    2.5054    1.1795 C   0  0  0  0  0  0  0  0  0  0  0  0
    4.2499    1.6283    0.3351 C   0  0  0  0  0  0  0  0  0  0  0  0
    0.9993   -1.1611   -0.5603 H   0  0  0  0  0  0  0  0  0  0  0  0
    0.5048    0.1716    0.4911 H   0  0  0  0  0  0  0  0  0  0  0  0
    1.5411   -1.1670    1.1220 H   0  0  0  0  0  0  0  0  0  0  0  0
    1.6966    0.8158    2.4291 H   0  0  0  0  0  0  0  0  0  0  0  0
    2.9408    2.3249    3.8851 H   0  0  0  0  0  0  0  0  0  0  0  0
    6.3768    5.0535    4.9296 H   0  0  0  0  0  0  0  0  0  0  0  0
    6.9911    6.0721    3.6136 H   0  0  0  0  0  0  0  0  0  0  0  0
    7.9396    4.6736    4.1865 H   0  0  0  0  0  0  0  0  0  0  0  0
    7.7188    4.5192    1.4577 H   0  0  0  0  0  0  0  0  0  0  0  0
    6.1521    3.3992   -1.1844 H   0  0  0  0  0  0  0  0  0  0  0  0
    7.7913    3.7170   -2.8247 H   0  0  0  0  0  0  0  0  0  0  0  0
   10.1721    3.6523   -3.4565 H   0  0  0  0  0  0  0  0  0  0  0  0
   11.8690    2.8116   -1.8690 H   0  0  0  0  0  0  0  0  0  0  0  0
   12.1951    1.8953    0.1794 H   0  0  0  0  0  0  0  0  0  0  0  0
    8.7899    2.0275    1.0149 H   0  0  0  0  0  0  0  0  0  0  0  0
    4.6207    1.4058   -0.6635 H   0  0  0  0  0  0  0  0  0  0  0  0
  1  2  1  0  0  0  0
  1 22  1  0  0  0  0
  1 23  1  0  0  0  0
  1 24  1  0  0  0  0
  2  3  1  0  0  0  0
  3  4  1  0  0  0  0
  3 21  2  0  0  0  0
  4  5  2  0  0  0  0
  4 25  1  0  0  0  0
  5  6  1  0  0  0  0
  5 26  1  0  0  0  0
  6  7  1  0  0  0  0
  6 20  2  0  0  0  0
  7  8  2  0  0  0  0
  8  9  1  0  0  0  0
  8 10  1  0  0  0  0
  9 27  1  0  0  0  0
  9 28  1  0  0  0  0
  9 29  1  0  0  0  0
 10 11  2  0  0  0  0
 10 30  1  0  0  0  0
 11 12  1  0  0  0  0
 11 20  1  0  0  0  0
 12 13  1  0  0  0  0
 12 31  1  0  0  0  0
 13 14  1  0  0  0  0
 13 19  2  0  0  0  0
 14 15  2  0  0  0  0
 14 32  1  0  0  0  0
 15 16  1  0  0  0  0
 15 33  1  0  0  0  0
 16 17  2  0  0  0  0
 16 34  1  0  0  0  0
 17 18  1  0  0  0  0
 17 19  1  0  0  0  0
 18 35  1  0  0  0  0
 19 36  1  0  0  0  0
 20 21  1  0  0  0  0
 21 37  1  0  0  0  0
M  END
>  <Energy>
42.0003

$$$$

 OpenBabel04232614443D

 35 36  0  0  0  0  0  0  0  0999 V2000
    1.5410    0.8157    0.5151 C   0  0  0  0  0  0  0  0  0  0  0  0
    2.4871    0.0557   -0.0654 C   0  0  0  0  0  0  0  0  0  0  0  0
    3.2670   -0.8268    0.8324 C   0  0  0  0  0  0  0  0  0  0  0  0
    2.8175   -2.1199    1.1209 C   0  0  0  0  0  0  0  0  0  0  0  0
    3.5713   -2.9931    1.9232 C   0  0  0  0  0  0  0  0  0  0  0  0
    3.1599   -4.2728    2.1934 O   0  0  0  0  0  0  0  0  0  0  0  0
    1.9405   -4.7352    1.6283 C   0  0  0  0  0  0  0  0  0  0  0  0
    4.8006   -2.5525    2.4697 C   0  0  0  0  0  0  0  0  0  0  0  0
    5.6163   -3.2647    3.3116 O   0  0  0  0  0  0  0  0  0  0  0  0
    5.2829   -4.5853    3.7033 C   0  0  0  0  0  0  0  0  0  0  0  0
    5.2514   -1.2467    2.1656 C   0  0  0  0  0  0  0  0  0  0  0  0
    6.4041   -0.6452    2.6155 O   0  0  0  0  0  0  0  0  0  0  0  0
    7.5451   -1.4807    2.7733 C   0  0  0  0  0  0  0  0  0  0  0  0
    4.4775   -0.3940    1.3689 C   0  0  0  0  0  0  0  0  0  0  0  0
    2.6785    0.1368   -1.4921 C   0  0  0  0  0  0  0  0  0  0  0  0
    2.4772    1.2020   -2.3609 C   0  0  0  0  0  0  0  0  0  0  0  0
    2.7715    0.8916   -3.7209 C   0  0  0  0  0  0  0  0  0  0  0  0
    3.1976   -0.4047   -3.8696 C   0  0  0  0  0  0  0  0  0  0  0  0
    3.2503   -1.2343   -2.3809 S   0  0  0  0  0  0  0  0  0  0  0  0
    1.3658    0.7849    1.5865 H   0  0  0  0  0  0  0  0  0  0  0  0
    0.8991    1.4823   -0.0511 H   0  0  0  0  0  0  0  0  0  0  0  0
    1.8711   -2.4270    0.6862 H   0  0  0  0  0  0  0  0  0  0  0  0
    1.8224   -5.7861    1.9097 H   0  0  0  0  0  0  0  0  0  0  0  0
    1.9618   -4.6887    0.5346 H   0  0  0  0  0  0  0  0  0  0  0  0
    1.0881   -4.1831    2.0365 H   0  0  0  0  0  0  0  0  0  0  0  0
    6.0729   -4.9364    4.3751 H   0  0  0  0  0  0  0  0  0  0  0  0
    5.2699   -5.2648    2.8454 H   0  0  0  0  0  0  0  0  0  0  0  0
    4.3479   -4.6098    4.2709 H   0  0  0  0  0  0  0  0  0  0  0  0
    8.4332   -0.8456    2.6937 H   0  0  0  0  0  0  0  0  0  0  0  0
    7.6179   -2.2442    1.9909 H   0  0  0  0  0  0  0  0  0  0  0  0
    7.5589   -1.9251    3.7728 H   0  0  0  0  0  0  0  0  0  0  0  0
    4.8415    0.6087    1.1554 H   0  0  0  0  0  0  0  0  0  0  0  0
    2.1376    2.1771   -2.0333 H   0  0  0  0  0  0  0  0  0  0  0  0
    2.6768    1.5876   -4.5453 H   0  0  0  0  0  0  0  0  0  0  0  0
    3.4875   -0.9084   -4.7813 H   0  0  0  0  0  0  0  0  0  0  0  0
  1  2  2  0  0  0  0
  1 20  1  0  0  0  0
  1 21  1  0  0  0  0
  2  3  1  0  0  0  0
  2 15  1  0  0  0  0
  3  4  1  0  0  0  0
  3 14  2  0  0  0  0
  4  5  2  0  0  0  0
  4 22  1  0  0  0  0
  5  6  1  0  0  0  0
  5  8  1  0  0  0  0
  6  7  1  0  0  0  0
  7 23  1  0  0  0  0
  7 24  1  0  0  0  0
  7 25  1  0  0  0  0
  8  9  1  0  0  0  0
  8 11  2  0  0  0  0
  9 10  1  0  0  0  0
 10 26  1  0  0  0  0
 10 27  1  0  0  0  0
 10 28  1  0  0  0  0
 11 12  1  0  0  0  0
 11 14  1  0  0  0  0
 12 13  1  0  0  0  0
 13 29  1  0  0  0  0
 13 30  1  0  0  0  0
 13 31  1  0  0  0  0
 14 32  1  0  0  0  0
 15 16  2  0  0  0  0
 15 19  1  0  0  0  0
 16 17  1  0  0  0  0
 16 33  1  0  0  0  0
 17 18  2  0  0  0  0
 17 34  1  0  0  0  0
 18 19  1  0  0  0  0
 18 35  1  0  0  0  0
M  END
>  <Energy>
74.7257

$$$$

 OpenBabel04232614443D

 38 40  0  0  0  0  0  0  0  0999 V2000
    1.8822    1.4427   -0.0229 C   0  0  0  0  0  0  0  0  0  0  0  0
    0.5890    0.6712   -0.0324 C   0  0  0  0  0  0  0  0  0  0  0  0
   -0.6172    1.3839   -0.0699 C   0  0  0  0  0  0  0  0  0  0  0  0
   -1.8338    0.7122   -0.0890 C   0  0  0  0  0  0  0  0  0  0  0  0
   -1.8621   -0.6803   -0.0696 C   0  0  0  0  0  0  0  0  0  0  0  0
   -0.6730   -1.4216   -0.0251 C   0  0  0  0  0  0  0  0  0  0  0  0
   -0.6301   -2.7964    0.0114 O   0  0  0  0  0  0  0  0  0  0  0  0
   -1.8795   -3.4800   -0.0658 C   0  0  0  0  0  0  0  0  0  0  0  0
   -1.6126   -4.9320    0.0352 C   0  0  0  0  0  0  0  0  0  0  0  0
   -1.4899   -5.8069    1.0849 C   0  0  0  0  0  0  0  0  0  0  0  0
   -1.3764   -7.0894    0.4835 C   0  0  0  0  0  0  0  0  0  0  0  0
   -1.2851   -8.3876    1.1524 C   0  0  0  0  0  0  0  0  0  0  0  0
   -1.7386   -9.5532    0.5177 C   0  0  0  0  0  0  0  0  0  0  0  0
   -1.6865  -10.7875    1.1718 C   0  0  0  0  0  0  0  0  0  0  0  0
   -1.1734  -10.8713    2.4644 C   0  0  0  0  0  0  0  0  0  0  0  0
   -0.7101   -9.7236    3.1032 C   0  0  0  0  0  0  0  0  0  0  0  0
   -0.7654   -8.4888    2.4524 C   0  0  0  0  0  0  0  0  0  0  0  0
   -1.4038   -6.9738   -0.8549 N   0  0  0  0  0  0  0  0  0  0  0  0
   -1.5420   -5.6269   -1.1291 O   0  0  0  0  0  0  0  0  0  0  0  0
    0.5660   -0.7462   -0.0079 C   0  0  0  0  0  0  0  0  0  0  0  0
    1.8680   -1.5088    0.0325 C   0  0  0  0  0  0  0  0  0  0  0  0
    1.7051    2.5241   -0.0405 H   0  0  0  0  0  0  0  0  0  0  0  0
    2.4798    1.1953   -0.9055 H   0  0  0  0  0  0  0  0  0  0  0  0
    2.4532    1.2201    0.8834 H   0  0  0  0  0  0  0  0  0  0  0  0
   -0.6160    2.4715   -0.0867 H   0  0  0  0  0  0  0  0  0  0  0  0
   -2.7632    1.2745   -0.1198 H   0  0  0  0  0  0  0  0  0  0  0  0
   -2.8390   -1.1512   -0.0886 H   0  0  0  0  0  0  0  0  0  0  0  0
   -2.3810   -3.2580   -1.0149 H   0  0  0  0  0  0  0  0  0  0  0  0
   -2.5230   -3.1908    0.7743 H   0  0  0  0  0  0  0  0  0  0  0  0
   -1.5317   -5.5612    2.1354 H   0  0  0  0  0  0  0  0  0  0  0  0
   -2.1491   -9.5074   -0.4898 H   0  0  0  0  0  0  0  0  0  0  0  0
   -2.0484  -11.6818    0.6707 H   0  0  0  0  0  0  0  0  0  0  0  0
   -1.1317  -11.8315    2.9723 H   0  0  0  0  0  0  0  0  0  0  0  0
   -0.3026   -9.7886    4.1092 H   0  0  0  0  0  0  0  0  0  0  0  0
   -0.3884   -7.6110    2.9714 H   0  0  0  0  0  0  0  0  0  0  0  0
    1.7286   -2.5934    0.0472 H   0  0  0  0  0  0  0  0  0  0  0  0
    2.4304   -1.2443    0.9338 H   0  0  0  0  0  0  0  0  0  0  0  0
    2.4690   -1.2738   -0.8524 H   0  0  0  0  0  0  0  0  0  0  0  0
  1  2  1  0  0  0  0
  1 22  1  0  0  0  0
  1 23  1  0  0  0  0
  1 24  1  0  0  0  0
  2  3  1  0  0  0  0
  2 20  2  0  0  0  0
  3  4  2  0  0  0  0
  3 25  1  0  0  0  0
  4  5  1  0  0  0  0
  4 26  1  0  0  0  0
  5  6  2  0  0  0  0
  5 27  1  0  0  0  0
  6  7  1  0  0  0  0
  6 20  1  0  0  0  0
  7  8  1  0  0  0  0
  8  9  1  0  0  0  0
  8 28  1  0  0  0  0
  8 29  1  0  0  0  0
  9 10  2  0  0  0  0
  9 19  1  0  0  0  0
 10 11  1  0  0  0  0
 10 30  1  0  0  0  0
 11 12  1  0  0  0  0
 11 18  2  0  0  0  0
 12 13  1  0  0  0  0
 12 17  2  0  0  0  0
 13 14  2  0  0  0  0
 13 31  1  0  0  0  0
 14 15  1  0  0  0  0
 14 32  1  0  0  0  0
 15 16  2  0  0  0  0
 15 33  1  0  0  0  0
 16 17  1  0  0  0  0
 16 34  1  0  0  0  0
 17 35  1  0  0  0  0
 18 19  1  0  0  0  0
 20 21  1  0  0  0  0
 21 36  1  0  0  0  0
 21 37  1  0  0  0  0
 21 38  1  0  0  0  0
M  END
>  <Energy>
58.1037

$$$$

 OpenBabel04232614443D

 40 42  0  0  0  0  0  0  0  0999 V2000
    5.7505    1.0231   -1.5819 C   0  0  0  0  0  0  0  0  0  0  0  0
    5.4020    0.5210   -0.1917 C   0  0  0  0  0  0  0  0  0  0  0  0
    5.5289   -0.9070   -0.1921 O   0  0  0  0  0  0  0  0  0  0  0  0
    4.4231   -1.5844   -0.5916 C   0  0  0  0  0  0  0  0  0  0  0  0
    3.2956   -1.1306   -0.6897 O   0  0  0  0  0  0  0  0  0  0  0  0
    4.8438   -2.9241   -1.0569 C   0  0  0  0  0  0  0  0  0  0  0  0
    5.9126   -3.5845   -0.4458 C   0  0  0  0  0  0  0  0  0  0  0  0
    6.3414   -4.8120   -0.9469 C   0  0  0  0  0  0  0  0  0  0  0  0
    5.6877   -5.3677   -2.0428 C   0  0  0  0  0  0  0  0  0  0  0  0
    6.0818   -6.6649   -2.6321 C   0  0  0  0  0  0  0  0  0  0  0  0
    5.9240   -6.9057   -4.0205 C   0  0  0  0  0  0  0  0  0  0  0  0
    6.3024   -8.1180   -4.6136 C   0  0  0  0  0  0  0  0  0  0  0  0
    6.8523   -9.0956   -3.8085 C   0  0  0  0  0  0  0  0  0  0  0  0
    7.0027   -8.8904   -2.4358 C   0  0  0  0  0  0  0  0  0  0  0  0
    6.6162   -7.6976   -1.8397 C   0  0  0  0  0  0  0  0  0  0  0  0
    7.5543  -10.1118   -1.7714 C   0  0  0  0  0  0  0  0  0  0  0  0
    8.1551  -10.8526   -2.9741 C   0  0  0  0  0  0  0  0  0  0  0  0
    7.3010  -10.4708   -4.1924 C   0  0  0  0  0  0  0  0  0  0  0  0
    4.6496   -4.7318   -2.6435 N   0  0  0  0  0  0  0  0  0  0  0  0
    4.2361   -3.5270   -2.1577 C   0  0  0  0  0  0  0  0  0  0  0  0
    3.1077   -2.8874   -2.9142 C   0  0  0  0  0  0  0  0  0  0  0  0
    5.6993    2.1117   -1.6339 H   0  0  0  0  0  0  0  0  0  0  0  0
    5.0713    0.5997   -2.3307 H   0  0  0  0  0  0  0  0  0  0  0  0
    6.7599    0.6981   -1.8596 H   0  0  0  0  0  0  0  0  0  0  0  0
    4.4016    0.8458    0.1150 H   0  0  0  0  0  0  0  0  0  0  0  0
    6.1147    0.9157    0.5394 H   0  0  0  0  0  0  0  0  0  0  0  0
    6.4284   -3.1472    0.4054 H   0  0  0  0  0  0  0  0  0  0  0  0
    7.1938   -5.3043   -0.4902 H   0  0  0  0  0  0  0  0  0  0  0  0
    5.4950   -6.1291   -4.6526 H   0  0  0  0  0  0  0  0  0  0  0  0
    6.1622   -8.2755   -5.6769 H   0  0  0  0  0  0  0  0  0  0  0  0
    6.7189   -7.5907   -0.7660 H   0  0  0  0  0  0  0  0  0  0  0  0
    6.7446  -10.6896   -1.3135 H   0  0  0  0  0  0  0  0  0  0  0  0
    8.3170   -9.8752   -1.0241 H   0  0  0  0  0  0  0  0  0  0  0  0
    8.2039  -11.9345   -2.8177 H   0  0  0  0  0  0  0  0  0  0  0  0
    9.1847  -10.5016   -3.1329 H   0  0  0  0  0  0  0  0  0  0  0  0
    6.4370  -11.1354   -4.2936 H   0  0  0  0  0  0  0  0  0  0  0  0
    7.8922  -10.4783   -5.1122 H   0  0  0  0  0  0  0  0  0  0  0  0
    2.8565   -3.4740   -3.8039 H   0  0  0  0  0  0  0  0  0  0  0  0
    3.3892   -1.8851   -3.2538 H   0  0  0  0  0  0  0  0  0  0  0  0
    2.2110   -2.8312   -2.2901 H   0  0  0  0  0  0  0  0  0  0  0  0
  1  2  1  0  0  0  0
  1 22  1  0  0  0  0
  1 23  1  0  0  0  0
  1 24  1  0  0  0  0
  2  3  1  0  0  0  0
  2 25  1  0  0  0  0
  2 26  1  0  0  0  0
  3  4  1  0  0  0  0
  4  5  2  0  0  0  0
  4  6  1  0  0  0  0
  6  7  1  0  0  0  0
  6 20  2  0  0  0  0
  7  8  2  0  0  0  0
  7 27  1  0  0  0  0
  8  9  1  0  0  0  0
  8 28  1  0  0  0  0
  9 10  1  0  0  0  0
  9 19  2  0  0  0  0
 10 11  1  0  0  0  0
 10 15  2  0  0  0  0
 11 12  2  0  0  0  0
 11 29  1  0  0  0  0
 12 13  1  0  0  0  0
 12 30  1  0  0  0  0
 13 14  2  0  0  0  0
 13 18  1  0  0  0  0
 14 15  1  0  0  0  0
 14 16  1  0  0  0  0
 15 31  1  0  0  0  0
 16 17  1  0  0  0  0
 16 32  1  0  0  0  0
 16 33  1  0  0  0  0
 17 18  1  0  0  0  0
 17 34  1  0  0  0  0
 17 35  1  0  0  0  0
 18 36  1  0  0  0  0
 18 37  1  0  0  0  0
 19 20  1  0  0  0  0
 20 21  1  0  0  0  0
 21 38  1  0  0  0  0
 21 39  1  0  0  0  0
 21 40  1  0  0  0  0
M  END
>  <Energy>
63.2253

$$$$

 OpenBabel04232614443D

 37 39  0  0  0  0  0  0  0  0999 V2000
    1.2005   -0.1064    0.6229 C   0  0  0  0  0  0  0  0  0  0  0  0
    2.5054   -0.7154    1.1304 C   0  0  0  0  0  0  0  0  0  0  0  0
    2.2228   -1.6735    2.2847 C   0  0  0  0  0  0  0  0  0  0  0  0
    3.0999   -1.4300    0.0380 O   0  0  0  0  0  0  0  0  0  0  0  0
    4.4517   -1.6422    0.0356 C   0  0  0  0  0  0  0  0  0  0  0  0
    5.3629   -1.1159    0.9545 C   0  0  0  0  0  0  0  0  0  0  0  0
    6.7265   -1.3909    0.8334 C   0  0  0  0  0  0  0  0  0  0  0  0
    7.1787   -2.2098   -0.2012 C   0  0  0  0  0  0  0  0  0  0  0  0
    8.6101   -2.5142   -0.3332 C   0  0  0  0  0  0  0  0  0  0  0  0
    9.4550   -2.0324    0.4082 O   0  0  0  0  0  0  0  0  0  0  0  0
    8.9819   -3.4510   -1.3998 C   0  0  0  0  0  0  0  0  0  0  0  0
    8.0214   -3.9314   -2.1996 C   0  0  0  0  0  0  0  0  0  0  0  0
    8.3745   -4.9172   -3.2257 C   0  0  0  0  0  0  0  0  0  0  0  0
    8.3502   -6.2831   -2.9144 C   0  0  0  0  0  0  0  0  0  0  0  0
    8.7731   -7.2275   -3.8523 C   0  0  0  0  0  0  0  0  0  0  0  0
    9.2203   -6.8129   -5.1056 C   0  0  0  0  0  0  0  0  0  0  0  0
    9.2404   -5.4559   -5.4257 C   0  0  0  0  0  0  0  0  0  0  0  0
    8.8192   -4.5087   -4.4881 C   0  0  0  0  0  0  0  0  0  0  0  0
    6.6786   -3.6021   -2.1256 O   0  0  0  0  0  0  0  0  0  0  0  0
    6.2814   -2.7589   -1.1129 C   0  0  0  0  0  0  0  0  0  0  0  0
    4.9203   -2.4636   -1.0009 C   0  0  0  0  0  0  0  0  0  0  0  0
    0.6950    0.4569    1.4142 H   0  0  0  0  0  0  0  0  0  0  0  0
    0.5193   -0.8779    0.2491 H   0  0  0  0  0  0  0  0  0  0  0  0
    1.3997    0.5748   -0.2116 H   0  0  0  0  0  0  0  0  0  0  0  0
    3.1278    0.1232    1.4588 H   0  0  0  0  0  0  0  0  0  0  0  0
    1.6469   -2.5402    1.9413 H   0  0  0  0  0  0  0  0  0  0  0  0
    1.6668   -1.1781    3.0868 H   0  0  0  0  0  0  0  0  0  0  0  0
    3.1536   -2.0645    2.7078 H   0  0  0  0  0  0  0  0  0  0  0  0
    5.0559   -0.4860    1.7820 H   0  0  0  0  0  0  0  0  0  0  0  0
    7.4303   -0.9722    1.5498 H   0  0  0  0  0  0  0  0  0  0  0  0
   10.0255   -3.7281   -1.4756 H   0  0  0  0  0  0  0  0  0  0  0  0
    8.0177   -6.6180   -1.9348 H   0  0  0  0  0  0  0  0  0  0  0  0
    8.7624   -8.2847   -3.6004 H   0  0  0  0  0  0  0  0  0  0  0  0
    9.5576   -7.5481   -5.8320 H   0  0  0  0  0  0  0  0  0  0  0  0
    9.5937   -5.1340   -6.4018 H   0  0  0  0  0  0  0  0  0  0  0  0
    8.8540   -3.4528   -4.7449 H   0  0  0  0  0  0  0  0  0  0  0  0
    4.2156   -2.8805   -1.7172 H   0  0  0  0  0  0  0  0  0  0  0  0
  1  2  1  0  0  0  0
  1 22  1  0  0  0  0
  1 23  1  0  0  0  0
  1 24  1  0  0  0  0
  2  3  1  0  0  0  0
  2  4  1  0  0  0  0
  2 25  1  0  0  0  0
  3 26  1  0  0  0  0
  3 27  1  0  0  0  0
  3 28  1  0  0  0  0
  4  5  1  0  0  0  0
  5  6  1  0  0  0  0
  5 21  2  0  0  0  0
  6  7  2  0  0  0  0
  6 29  1  0  0  0  0
  7  8  1  0  0  0  0
  7 30  1  0  0  0  0
  8  9  1  0  0  0  0
  8 20  2  0  0  0  0
  9 10  2  0  0  0  0
  9 11  1  0  0  0  0
 11 12  2  0  0  0  0
 11 31  1  0  0  0  0
 12 13  1  0  0  0  0
 12 19  1  0  0  0  0
 13 14  1  0  0  0  0
 13 18  2  0  0  0  0
 14 15  2  0  0  0  0
 14 32  1  0  0  0  0
 15 16  1  0  0  0  0
 15 33  1  0  0  0  0
 16 17  2  0  0  0  0
 16 34  1  0  0  0  0
 17 18  1  0  0  0  0
 17 35  1  0  0  0  0
 18 36  1  0  0  0  0
 19 20  1  0  0  0  0
 20 21  1  0  0  0  0
 21 37  1  0  0  0  0
M  END
>  <Energy>
56.3559

$$$$

 OpenBabel04232614443D

 43 44  0  0  0  0  0  0  0  0999 V2000
    0.7467   -0.1145   -0.2075 C   0  0  0  0  0  0  0  0  0  0  0  0
    2.2518   -0.0670    0.0132 C   0  0  0  0  0  0  0  0  0  0  0  0
    2.9943   -0.9215   -1.0180 C   0  0  0  0  0  0  0  0  0  0  0  0
    4.5377   -0.8753   -0.9510 N   0  3  0  0  0  0  0  0  0  0  0  0
    4.9278    0.4203   -1.1343 O   0  5  0  0  0  0  0  0  0  0  0  0
    4.9836   -1.4148    0.4198 C   0  0  0  0  0  0  0  0  0  0  0  0
    6.4535   -1.3940    0.8522 C   0  0  0  0  0  0  0  0  0  0  0  0
    7.1661   -0.0563    0.7404 C   0  0  0  0  0  0  0  0  0  0  0  0
    5.0376   -1.7429   -2.1161 C   0  0  0  0  0  0  0  0  0  0  0  0
    6.5402   -1.7804   -2.3661 C   0  0  0  0  0  0  0  0  0  0  0  0
    6.8966   -2.6724   -3.5152 C   0  0  0  0  0  0  0  0  0  0  0  0
    7.1511   -2.2798   -4.8137 C   0  0  0  0  0  0  0  0  0  0  0  0
    7.4472   -3.3957   -5.5441 N   0  0  0  0  0  0  0  0  0  0  0  0
    7.3936   -4.5189   -4.7533 C   0  0  0  0  0  0  0  0  0  0  0  0
    7.6199   -5.8627   -5.0767 C   0  0  0  0  0  0  0  0  0  0  0  0
    7.5149   -6.8014   -4.0479 C   0  0  0  0  0  0  0  0  0  0  0  0
    7.1960   -6.4134   -2.7493 C   0  0  0  0  0  0  0  0  0  0  0  0
    6.9713   -5.0641   -2.4442 C   0  0  0  0  0  0  0  0  0  0  0  0
    7.0630   -4.0972   -3.4681 C   0  0  0  0  0  0  0  0  0  0  0  0
    0.2348    0.4732    0.5623 H   0  0  0  0  0  0  0  0  0  0  0  0
    0.3744   -1.1422   -0.1495 H   0  0  0  0  0  0  0  0  0  0  0  0
    0.4771    0.2971   -1.1844 H   0  0  0  0  0  0  0  0  0  0  0  0
    2.4462   -0.4237    1.0288 H   0  0  0  0  0  0  0  0  0  0  0  0
    2.5943    0.9721   -0.0341 H   0  0  0  0  0  0  0  0  0  0  0  0
    2.7370   -0.5768   -2.0273 H   0  0  0  0  0  0  0  0  0  0  0  0
    2.7156   -1.9772   -0.9228 H   0  0  0  0  0  0  0  0  0  0  0  0
    4.6003   -2.4427    0.4633 H   0  0  0  0  0  0  0  0  0  0  0  0
    4.4426   -0.8142    1.1532 H   0  0  0  0  0  0  0  0  0  0  0  0
    7.0306   -2.1753    0.3594 H   0  0  0  0  0  0  0  0  0  0  0  0
    6.4798   -1.6878    1.9111 H   0  0  0  0  0  0  0  0  0  0  0  0
    7.1767    0.3315   -0.2798 H   0  0  0  0  0  0  0  0  0  0  0  0
    8.2118   -0.1664    1.0454 H   0  0  0  0  0  0  0  0  0  0  0  0
    6.7025    0.6869    1.3962 H   0  0  0  0  0  0  0  0  0  0  0  0
    4.5488   -1.3246   -3.0072 H   0  0  0  0  0  0  0  0  0  0  0  0
    4.6290   -2.7455   -1.9445 H   0  0  0  0  0  0  0  0  0  0  0  0
    7.0739   -2.1817   -1.5119 H   0  0  0  0  0  0  0  0  0  0  0  0
    6.9332   -0.7714   -2.5301 H   0  0  0  0  0  0  0  0  0  0  0  0
    7.1552   -1.2992   -5.2645 H   0  0  0  0  0  0  0  0  0  0  0  0
    7.6835   -3.3993   -6.5309 H   0  0  0  0  0  0  0  0  0  0  0  0
    7.8734   -6.1685   -6.0854 H   0  0  0  0  0  0  0  0  0  0  0  0
    7.6884   -7.8535   -4.2641 H   0  0  0  0  0  0  0  0  0  0  0  0
    7.1347   -7.1579   -1.9618 H   0  0  0  0  0  0  0  0  0  0  0  0
    6.7364   -4.7734   -1.4239 H   0  0  0  0  0  0  0  0  0  0  0  0
  1  2  1  0  0  0  0
  1 20  1  0  0  0  0
  1 21  1  0  0  0  0
  1 22  1  0  0  0  0
  2  3  1  0  0  0  0
  2 23  1  0  0  0  0
  2 24  1  0  0  0  0
  3  4  1  0  0  0  0
  3 25  1  0  0  0  0
  3 26  1  0  0  0  0
  4  5  1  0  0  0  0
  4  6  1  0  0  0  0
  4  9  1  0  0  0  0
  6  7  1  0  0  0  0
  6 27  1  0  0  0  0
  6 28  1  0  0  0  0
  7  8  1  0  0  0  0
  7 29  1  0  0  0  0
  7 30  1  0  0  0  0
  8 31  1  0  0  0  0
  8 32  1  0  0  0  0
  8 33  1  0  0  0  0
  9 10  1  0  0  0  0
  9 34  1  0  0  0  0
  9 35  1  0  0  0  0
 10 11  1  0  0  0  0
 10 36  1  0  0  0  0
 10 37  1  0  0  0  0
 11 12  2  0  0  0  0
 11 19  1  0  0  0  0
 12 13  1  0  0  0  0
 12 38  1  0  0  0  0
 13 14  1  0  0  0  0
 13 39  1  0  0  0  0
 14 15  1  0  0  0  0
 14 19  2  0  0  0  0
 15 16  2  0  0  0  0
 15 40  1  0  0  0  0
 16 17  1  0  0  0  0
 16 41  1  0  0  0  0
 17 18  2  0  0  0  0
 17 42  1  0  0  0  0
 18 19  1  0  0  0  0
 18 43  1  0  0  0  0
M  CHG  2   4   1   5  -1
M  END
>  <Energy>
39.4811

$$$$

 OpenBabel04232614443D

 36 37  0  0  0  0  0  0  0  0999 V2000
    2.8176    0.8503    2.6519 C   0  0  0  0  0  0  0  0  0  0  0  0
    2.2704    0.8494    1.4265 C   0  0  0  0  0  0  0  0  0  0  0  0
    2.9747    0.7859    0.0920 C   0  0  0  0  0  0  0  0  0  0  0  0
    4.4848    0.8247    0.1248 C   0  0  0  0  0  0  0  0  0  0  0  0
    5.1381   -0.4299    0.1840 C   0  0  0  0  0  0  0  0  0  0  0  0
    6.5292   -0.5248    0.1543 C   0  0  0  0  0  0  0  0  0  0  0  0
    7.2781   -2.0729    0.1797 Cl  0  0  0  0  0  0  0  0  0  0  0  0
    7.3018    0.6228    0.0803 C   0  0  0  0  0  0  0  0  0  0  0  0
    6.6748    1.8707    0.0334 C   0  0  0  0  0  0  0  0  0  0  0  0
    5.2760    1.9885    0.0693 C   0  0  0  0  0  0  0  0  0  0  0  0
    4.8355    3.2826   -0.0700 O   0  0  0  0  0  0  0  0  0  0  0  0
    3.8041    3.6940    0.8216 C   0  0  0  0  0  0  0  0  0  0  0  0
    3.6560    5.2137    0.7943 C   0  0  0  0  0  0  0  0  0  0  0  0
    2.3864    5.6075    1.5466 C   0  0  0  0  0  0  0  0  0  0  0  0
    2.1020    7.0238    1.4976 N   0  0  0  0  0  0  0  0  0  0  0  0
    1.3229    7.6586    0.5725 C   0  0  0  0  0  0  0  0  0  0  0  0
    1.2709    8.9670    0.9944 C   0  0  0  0  0  0  0  0  0  0  0  0
    1.9950    9.1353    2.1467 N   0  0  0  0  0  0  0  0  0  0  0  0
    2.4796    7.9471    2.4288 C   0  0  0  0  0  0  0  0  0  0  0  0
    2.1926    0.9056    3.5387 H   0  0  0  0  0  0  0  0  0  0  0  0
    3.8895    0.7934    2.8110 H   0  0  0  0  0  0  0  0  0  0  0  0
    1.1839    0.9065    1.3609 H   0  0  0  0  0  0  0  0  0  0  0  0
    2.6039    1.5712   -0.5756 H   0  0  0  0  0  0  0  0  0  0  0  0
    2.6533   -0.1422   -0.4003 H   0  0  0  0  0  0  0  0  0  0  0  0
    4.5474   -1.3433    0.2282 H   0  0  0  0  0  0  0  0  0  0  0  0
    8.3857    0.5602    0.0463 H   0  0  0  0  0  0  0  0  0  0  0  0
    7.2878    2.7682   -0.0383 H   0  0  0  0  0  0  0  0  0  0  0  0
    4.0174    3.3659    1.8450 H   0  0  0  0  0  0  0  0  0  0  0  0
    2.8511    3.2922    0.4821 H   0  0  0  0  0  0  0  0  0  0  0  0
    3.6154    5.5664   -0.2441 H   0  0  0  0  0  0  0  0  0  0  0  0
    4.5400    5.6873    1.2384 H   0  0  0  0  0  0  0  0  0  0  0  0
    2.4540    5.3171    2.6016 H   0  0  0  0  0  0  0  0  0  0  0  0
    1.5129    5.0938    1.1255 H   0  0  0  0  0  0  0  0  0  0  0  0
    0.8761    7.1519   -0.2717 H   0  0  0  0  0  0  0  0  0  0  0  0
    0.7459    9.7943    0.5346 H   0  0  0  0  0  0  0  0  0  0  0  0
    3.0923    7.7045    3.2870 H   0  0  0  0  0  0  0  0  0  0  0  0
  1  2  2  0  0  0  0
  1 20  1  0  0  0  0
  1 21  1  0  0  0  0
  2  3  1  0  0  0  0
  2 22  1  0  0  0  0
  3  4  1  0  0  0  0
  3 23  1  0  0  0  0
  3 24  1  0  0  0  0
  4  5  1  0  0  0  0
  4 10  2  0  0  0  0
  5  6  2  0  0  0  0
  5 25  1  0  0  0  0
  6  7  1  0  0  0  0
  6  8  1  0  0  0  0
  8  9  2  0  0  0  0
  8 26  1  0  0  0  0
  9 10  1  0  0  0  0
  9 27  1  0  0  0  0
 10 11  1  0  0  0  0
 11 12  1  0  0  0  0
 12 13  1  0  0  0  0
 12 28  1  0  0  0  0
 12 29  1  0  0  0  0
 13 14  1  0  0  0  0
 13 30  1  0  0  0  0
 13 31  1  0  0  0  0
 14 15  1  0  0  0  0
 14 32  1  0  0  0  0
 14 33  1  0  0  0  0
 15 16  1  0  0  0  0
 15 19  1  0  0  0  0
 16 17  2  0  0  0  0
 16 34  1  0  0  0  0
 17 18  1  0  0  0  0
 17 35  1  0  0  0  0
 18 19  2  0  0  0  0
 19 36  1  0  0  0  0
M  END
>  <Energy>
36.2883

$$$$

 OpenBabel04232614443D

 38 38  0  0  1  0  0  0  0  0999 V2000
    0.9842    0.5964    0.2454 C   0  0  0  0  0  0  0  0  0  0  0  0
    2.4390    0.1368    0.0881 C   0  0  3  0  0  0  0  0  0  0  0  0
    2.9770    0.4919   -1.2180 N   0  0  0  0  0  0  0  0  0  0  0  0
    2.6724   -0.2704   -2.3323 C   0  0  0  0  0  0  0  0  0  0  0  0
    1.9837   -1.2855   -2.2493 O   0  0  0  0  0  0  0  0  0  0  0  0
    3.1986    0.2617   -3.6682 C   0  0  3  0  0  0  0  0  0  0  0  0
    3.6438   -0.8871   -4.4894 C   0  0  0  0  0  0  0  0  0  0  0  0
    4.0302   -1.7486   -5.1641 N   0  0  0  0  0  0  0  0  0  0  0  0
    2.1522    1.1675   -4.4087 C   0  0  0  0  0  0  0  0  0  0  0  0
    1.8542    2.4377   -3.5825 C   0  0  0  0  0  0  0  0  0  0  0  0
    2.7093    1.6351   -5.7741 C   0  0  0  0  0  0  0  0  0  0  0  0
    0.8194    0.4341   -4.6626 C   0  0  0  0  0  0  0  0  0  0  0  0
    3.3027    0.6776    1.2138 C   0  0  0  0  0  0  0  0  0  0  0  0
    4.0135   -0.2203    2.0279 C   0  0  0  0  0  0  0  0  0  0  0  0
    4.7243    0.2344    3.1408 C   0  0  0  0  0  0  0  0  0  0  0  0
    4.7397    1.5930    3.4432 C   0  0  0  0  0  0  0  0  0  0  0  0
    5.5717    2.1484    4.8425 Cl  0  0  0  0  0  0  0  0  0  0  0  0
    4.0729    2.5035    2.6270 C   0  0  0  0  0  0  0  0  0  0  0  0
    3.3641    2.0494    1.5113 C   0  0  0  0  0  0  0  0  0  0  0  0
    0.3414    0.1489   -0.5192 H   0  0  0  0  0  0  0  0  0  0  0  0
    0.8833    1.6836    0.1537 H   0  0  0  0  0  0  0  0  0  0  0  0
    0.5917    0.3064    1.2272 H   0  0  0  0  0  0  0  0  0  0  0  0
    2.4344   -0.9591    0.1490 H   0  0  0  0  0  0  0  0  0  0  0  0
    3.5852    1.2973   -1.2858 H   0  0  0  0  0  0  0  0  0  0  0  0
    4.0906    0.8683   -3.4580 H   0  0  0  0  0  0  0  0  0  0  0  0
    2.7698    3.0080   -3.3899 H   0  0  0  0  0  0  0  0  0  0  0  0
    1.3916    2.2005   -2.6199 H   0  0  0  0  0  0  0  0  0  0  0  0
    1.1594    3.0995   -4.1138 H   0  0  0  0  0  0  0  0  0  0  0  0
    3.6592    2.1674   -5.6529 H   0  0  0  0  0  0  0  0  0  0  0  0
    2.0095    2.3163   -6.2730 H   0  0  0  0  0  0  0  0  0  0  0  0
    2.8758    0.7958   -6.4575 H   0  0  0  0  0  0  0  0  0  0  0  0
    0.3343    0.1397   -3.7263 H   0  0  0  0  0  0  0  0  0  0  0  0
    0.9627   -0.4664   -5.2686 H   0  0  0  0  0  0  0  0  0  0  0  0
    0.1125    1.0790   -5.1976 H   0  0  0  0  0  0  0  0  0  0  0  0
    3.9935   -1.2888    1.8178 H   0  0  0  0  0  0  0  0  0  0  0  0
    5.2447   -0.4782    3.7753 H   0  0  0  0  0  0  0  0  0  0  0  0
    4.0830    3.5639    2.8656 H   0  0  0  0  0  0  0  0  0  0  0  0
    2.8317    2.7748    0.9002 H   0  0  0  0  0  0  0  0  0  0  0  0
  1  2  1  0  0  0  0
  1 20  1  0  0  0  0
  1 21  1  0  0  0  0
  1 22  1  0  0  0  0
  2  3  1  0  0  0  0
  2 13  1  0  0  0  0
  2 23  1  0  0  0  0
  3  4  1  0  0  0  0
  3 24  1  0  0  0  0
  4  5  2  0  0  0  0
  4  6  1  0  0  0  0
  6  7  1  0  0  0  0
  6  9  1  0  0  0  0
  6 25  1  0  0  0  0
  7  8  3  0  0  0  0
  9 10  1  0  0  0  0
  9 11  1  0  0  0  0
  9 12  1  0  0  0  0
 10 26  1  0  0  0  0
 10 27  1  0  0  0  0
 10 28  1  0  0  0  0
 11 29  1  0  0  0  0
 11 30  1  0  0  0  0
 11 31  1  0  0  0  0
 12 32  1  0  0  0  0
 12 33  1  0  0  0  0
 12 34  1  0  0  0  0
 13 14  1  0  0  0  0
 13 19  2  0  0  0  0
 14 15  2  0  0  0  0
 14 35  1  0  0  0  0
 15 16  1  0  0  0  0
 15 36  1  0  0  0  0
 16 17  1  0  0  0  0
 16 18  2  0  0  0  0
 18 19  1  0  0  0  0
 18 37  1  0  0  0  0
 19 38  1  0  0  0  0
M  END
>  <Energy>
16.5146

$$$$

 OpenBabel04232614443D

 37 38  0  0  0  0  0  0  0  0999 V2000
    0.9878    0.5166    0.6350 C   0  0  0  0  0  0  0  0  0  0  0  0
    2.4588    0.3197    0.3015 C   0  0  0  0  0  0  0  0  0  0  0  0
    2.8883    1.2291   -0.8486 C   0  0  0  0  0  0  0  0  0  0  0  0
    4.4102    1.2365   -1.0189 C   0  0  0  0  0  0  0  0  0  0  0  0
    4.8737    2.1842   -2.0107 N   0  0  0  0  0  0  0  0  0  0  0  0
    5.4520    1.9186   -3.2276 C   0  0  0  0  0  0  0  0  0  0  0  0
    5.9330    0.3708   -3.8369 S   0  0  0  0  0  0  0  0  0  0  0  0
    5.5787    3.0296   -3.9141 N   0  0  0  0  0  0  0  0  0  0  0  0
    5.1068    4.0513   -3.1354 N   0  0  0  0  0  0  0  0  0  0  0  0
    4.7322    3.5620   -1.9706 C   0  0  0  0  0  0  0  0  0  0  0  0
    4.2081    4.4556   -0.8823 C   0  0  0  0  0  0  0  0  0  0  0  0
    4.0281    4.1231    0.4414 C   0  0  0  0  0  0  0  0  0  0  0  0
    3.3390    5.3949    1.3552 S   0  0  0  0  0  0  0  0  0  0  0  0
    3.3315    6.4458    0.0040 C   0  0  0  0  0  0  0  0  0  0  0  0
    2.8223    7.8596    0.1525 C   0  0  0  0  0  0  0  0  0  0  0  0
    3.9583    8.8614   -0.0556 C   0  0  0  0  0  0  0  0  0  0  0  0
    1.6649    8.1385   -0.8080 C   0  0  0  0  0  0  0  0  0  0  0  0
    3.8431    5.8190   -1.1169 C   0  0  0  0  0  0  0  0  0  0  0  0
    0.6773   -0.1858    1.4144 H   0  0  0  0  0  0  0  0  0  0  0  0
    0.3583    0.3541   -0.2446 H   0  0  0  0  0  0  0  0  0  0  0  0
    0.8057    1.5318    1.0035 H   0  0  0  0  0  0  0  0  0  0  0  0
    2.6381   -0.7268    0.0308 H   0  0  0  0  0  0  0  0  0  0  0  0
    3.0542    0.5317    1.1968 H   0  0  0  0  0  0  0  0  0  0  0  0
    2.5066    2.2371   -0.6654 H   0  0  0  0  0  0  0  0  0  0  0  0
    2.4145    0.8978   -1.7810 H   0  0  0  0  0  0  0  0  0  0  0  0
    4.7284    0.2300   -1.2955 H   0  0  0  0  0  0  0  0  0  0  0  0
    4.9353    1.4627   -0.0866 H   0  0  0  0  0  0  0  0  0  0  0  0
    5.9422   -0.3682   -2.7240 H   0  0  0  0  0  0  0  0  0  0  0  0
    4.2438    3.2030    0.9594 H   0  0  0  0  0  0  0  0  0  0  0  0
    2.4383    8.0044    1.1713 H   0  0  0  0  0  0  0  0  0  0  0  0
    4.3762    8.7957   -1.0665 H   0  0  0  0  0  0  0  0  0  0  0  0
    4.7738    8.6782    0.6535 H   0  0  0  0  0  0  0  0  0  0  0  0
    3.6042    9.8864    0.0969 H   0  0  0  0  0  0  0  0  0  0  0  0
    1.9757    8.0589   -1.8556 H   0  0  0  0  0  0  0  0  0  0  0  0
    1.2703    9.1485   -0.6526 H   0  0  0  0  0  0  0  0  0  0  0  0
    0.8435    7.4305   -0.6492 H   0  0  0  0  0  0  0  0  0  0  0  0
    3.9291    6.3063   -2.0824 H   0  0  0  0  0  0  0  0  0  0  0  0
  1  2  1  0  0  0  0
  1 19  1  0  0  0  0
  1 20  1  0  0  0  0
  1 21  1  0  0  0  0
  2  3  1  0  0  0  0
  2 22  1  0  0  0  0
  2 23  1  0  0  0  0
  3  4  1  0  0  0  0
  3 24  1  0  0  0  0
  3 25  1  0  0  0  0
  4  5  1  0  0  0  0
  4 26  1  0  0  0  0
  4 27  1  0  0  0  0
  5  6  1  0  0  0  0
  5 10  1  0  0  0  0
  6  7  1  0  0  0  0
  6  8  2  0  0  0  0
  7 28  1  0  0  0  0
  8  9  1  0  0  0  0
  9 10  2  0  0  0  0
 10 11  1  0  0  0  0
 11 12  2  0  0  0  0
 11 18  1  0  0  0  0
 12 13  1  0  0  0  0
 12 29  1  0  0  0  0
 13 14  1  0  0  0  0
 14 15  1  0  0  0  0
 14 18  2  0  0  0  0
 15 16  1  0  0  0  0
 15 17  1  0  0  0  0
 15 30  1  0  0  0  0
 16 31  1  0  0  0  0
 16 32  1  0  0  0  0
 16 33  1  0  0  0  0
 17 34  1  0  0  0  0
 17 35  1  0  0  0  0
 17 36  1  0  0  0  0
 18 37  1  0  0  0  0
M  END
>  <Energy>
8.43969

$$$$

 OpenBabel04232614443D

 38 39  0  0  0  0  0  0  0  0999 V2000
    1.6658    1.9759    1.8639 C   0  0  0  0  0  0  0  0  0  0  0  0
    2.7372    2.1016    0.7918 C   0  0  0  0  0  0  0  0  0  0  0  0
    3.9996    1.3149    1.1579 C   0  0  0  0  0  0  0  0  0  0  0  0
    5.0933    1.4295    0.0911 C   0  0  0  0  0  0  0  0  0  0  0  0
    5.5193    2.8232    0.0237 N   0  0  0  0  0  0  0  0  0  0  0  0
    6.4077    3.0973   -0.8657 C   0  0  0  0  0  0  0  0  0  0  0  0
    6.8921    4.4586   -0.9532 C   0  0  0  0  0  0  0  0  0  0  0  0
    6.5074    5.6040   -0.2067 C   0  0  0  0  0  0  0  0  0  0  0  0
    5.4234    5.7815    0.7963 C   0  0  0  0  0  0  0  0  0  0  0  0
    7.2841    6.6557   -0.4763 N   0  0  0  0  0  0  0  0  0  0  0  0
    8.0927    6.2651   -1.4940 N   0  0  0  0  0  0  0  0  0  0  0  0
    8.9575    7.2480   -2.0594 C   0  0  0  0  0  0  0  0  0  0  0  0
    9.4247    8.2803   -1.2260 C   0  0  0  0  0  0  0  0  0  0  0  0
   10.2784    9.2638   -1.7255 C   0  0  0  0  0  0  0  0  0  0  0  0
   10.6487    9.2440   -3.0670 C   0  0  0  0  0  0  0  0  0  0  0  0
   10.1588    8.2462   -3.9100 C   0  0  0  0  0  0  0  0  0  0  0  0
    9.3131    7.2495   -3.4121 C   0  0  0  0  0  0  0  0  0  0  0  0
    7.9045    4.9165   -1.7854 C   0  0  0  0  0  0  0  0  0  0  0  0
    8.8967    3.9845   -2.8832 S   0  0  0  0  0  0  0  0  0  0  0  0
    0.7831    2.5609    1.5863 H   0  0  0  0  0  0  0  0  0  0  0  0
    2.0283    2.3479    2.8276 H   0  0  0  0  0  0  0  0  0  0  0  0
    1.3565    0.9338    1.9906 H   0  0  0  0  0  0  0  0  0  0  0  0
    2.9752    3.1633    0.6603 H   0  0  0  0  0  0  0  0  0  0  0  0
    2.3377    1.7391   -0.1622 H   0  0  0  0  0  0  0  0  0  0  0  0
    3.7434    0.2572    1.2917 H   0  0  0  0  0  0  0  0  0  0  0  0
    4.3871    1.6766    2.1188 H   0  0  0  0  0  0  0  0  0  0  0  0
    4.7143    1.0818   -0.8768 H   0  0  0  0  0  0  0  0  0  0  0  0
    5.9381    0.7935    0.3829 H   0  0  0  0  0  0  0  0  0  0  0  0
    6.8221    2.3329   -1.5431 H   0  0  0  0  0  0  0  0  0  0  0  0
    5.0056    4.8440    1.1618 H   0  0  0  0  0  0  0  0  0  0  0  0
    4.6050    6.3603    0.3546 H   0  0  0  0  0  0  0  0  0  0  0  0
    5.7946    6.3287    1.6692 H   0  0  0  0  0  0  0  0  0  0  0  0
    9.1461    8.3141   -0.1732 H   0  0  0  0  0  0  0  0  0  0  0  0
   10.6473   10.0455   -1.0662 H   0  0  0  0  0  0  0  0  0  0  0  0
   11.3049   10.0167   -3.4591 H   0  0  0  0  0  0  0  0  0  0  0  0
   10.4222    8.2574   -4.9652 H   0  0  0  0  0  0  0  0  0  0  0  0
    8.9002    6.5323   -4.1158 H   0  0  0  0  0  0  0  0  0  0  0  0
    9.9589    4.7976   -2.9920 H   0  0  0  0  0  0  0  0  0  0  0  0
  1  2  1  0  0  0  0
  1 20  1  0  0  0  0
  1 21  1  0  0  0  0
  1 22  1  0  0  0  0
  2  3  1  0  0  0  0
  2 23  1  0  0  0  0
  2 24  1  0  0  0  0
  3  4  1  0  0  0  0
  3 25  1  0  0  0  0
  3 26  1  0  0  0  0
  4  5  1  0  0  0  0
  4 27  1  0  0  0  0
  4 28  1  0  0  0  0
  5  6  2  0  0  0  0
  6  7  1  0  0  0  0
  6 29  1  0  0  0  0
  7  8  1  0  0  0  0
  7 18  2  0  0  0  0
  8  9  1  0  0  0  0
  8 10  2  0  0  0  0
  9 30  1  0  0  0  0
  9 31  1  0  0  0  0
  9 32  1  0  0  0  0
 10 11  1  0  0  0  0
 11 12  1  0  0  0  0
 11 18  1  0  0  0  0
 12 13  1  0  0  0  0
 12 17  2  0  0  0  0
 13 14  2  0  0  0  0
 13 33  1  0  0  0  0
 14 15  1  0  0  0  0
 14 34  1  0  0  0  0
 15 16  2  0  0  0  0
 15 35  1  0  0  0  0
 16 17  1  0  0  0  0
 16 36  1  0  0  0  0
 17 37  1  0  0  0  0
 18 19  1  0  0  0  0
 19 38  1  0  0  0  0
M  END
>  <Energy>
71.0531

$$$$

 OpenBabel04232614443D

 36 38  0  0  0  0  0  0  0  0999 V2000
    1.0741    0.2425    0.2597 C   0  0  0  0  0  0  0  0  0  0  0  0
    2.4000   -0.0862   -0.1363 O   0  0  0  0  0  0  0  0  0  0  0  0
    2.9342    0.6857   -1.1292 C   0  0  0  0  0  0  0  0  0  0  0  0
    2.5540    1.9937   -1.4313 C   0  0  0  0  0  0  0  0  0  0  0  0
    3.1786    2.7116   -2.4596 C   0  0  0  0  0  0  0  0  0  0  0  0
    4.2382    2.1777   -3.2299 C   0  0  0  0  0  0  0  0  0  0  0  0
    4.8987    2.9732   -4.2902 C   0  0  0  0  0  0  0  0  0  0  0  0
    5.1246    4.3524   -4.1206 C   0  0  0  0  0  0  0  0  0  0  0  0
    5.7343    5.1264   -5.1141 C   0  0  0  0  0  0  0  0  0  0  0  0
    6.1554    4.5318   -6.2978 C   0  0  0  0  0  0  0  0  0  0  0  0
    5.9436    3.1719   -6.4963 C   0  0  0  0  0  0  0  0  0  0  0  0
    5.3055    2.4080   -5.5119 C   0  0  0  0  0  0  0  0  0  0  0  0
    4.6423    0.8527   -2.9185 C   0  0  0  0  0  0  0  0  0  0  0  0
    5.6395   -0.0609   -3.3809 C   0  0  0  0  0  0  0  0  0  0  0  0
    5.4860   -1.2311   -2.6721 C   0  0  0  0  0  0  0  0  0  0  0  0
    6.1786   -2.4031   -2.7980 N   0  0  0  0  0  0  0  0  0  0  0  0
    6.0583   -3.5776   -2.1258 C   0  0  0  0  0  0  0  0  0  0  0  0
    5.0882   -3.8152   -1.0013 C   0  0  0  0  0  0  0  0  0  0  0  0
    6.8068   -4.5000   -2.4739 O   0  0  0  0  0  0  0  0  0  0  0  0
    4.4918   -1.0925   -1.7711 O   0  0  0  0  0  0  0  0  0  0  0  0
    3.9806    0.1657   -1.9022 C   0  0  0  0  0  0  0  0  0  0  0  0
    0.7312   -0.5294    0.9556 H   0  0  0  0  0  0  0  0  0  0  0  0
    0.3948    0.2472   -0.5994 H   0  0  0  0  0  0  0  0  0  0  0  0
    1.0434    1.1994    0.7909 H   0  0  0  0  0  0  0  0  0  0  0  0
    1.7728    2.4950   -0.8694 H   0  0  0  0  0  0  0  0  0  0  0  0
    2.8219    3.7216   -2.6573 H   0  0  0  0  0  0  0  0  0  0  0  0
    4.8285    4.8515   -3.1996 H   0  0  0  0  0  0  0  0  0  0  0  0
    5.8831    6.1916   -4.9567 H   0  0  0  0  0  0  0  0  0  0  0  0
    6.6417    5.1276   -7.0656 H   0  0  0  0  0  0  0  0  0  0  0  0
    6.2668    2.7018   -7.4219 H   0  0  0  0  0  0  0  0  0  0  0  0
    5.1179    1.3593   -5.7270 H   0  0  0  0  0  0  0  0  0  0  0  0
    6.3750    0.1102   -4.1530 H   0  0  0  0  0  0  0  0  0  0  0  0
    6.8937   -2.4378   -3.5130 H   0  0  0  0  0  0  0  0  0  0  0  0
    4.4776   -2.9686   -0.7116 H   0  0  0  0  0  0  0  0  0  0  0  0
    5.6581   -4.1223   -0.1179 H   0  0  0  0  0  0  0  0  0  0  0  0
    4.4174   -4.6299   -1.2910 H   0  0  0  0  0  0  0  0  0  0  0  0
  1  2  1  0  0  0  0
  1 22  1  0  0  0  0
  1 23  1  0  0  0  0
  1 24  1  0  0  0  0
  2  3  1  0  0  0  0
  3  4  1  0  0  0  0
  3 21  2  0  0  0  0
  4  5  2  0  0  0  0
  4 25  1  0  0  0  0
  5  6  1  0  0  0  0
  5 26  1  0  0  0  0
  6  7  1  0  0  0  0
  6 13  2  0  0  0  0
  7  8  1  0  0  0  0
  7 12  2  0  0  0  0
  8  9  2  0  0  0  0
  8 27  1  0  0  0  0
  9 10  1  0  0  0  0
  9 28  1  0  0  0  0
 10 11  2  0  0  0  0
 10 29  1  0  0  0  0
 11 12  1  0  0  0  0
 11 30  1  0  0  0  0
 12 31  1  0  0  0  0
 13 14  1  0  0  0  0
 13 21  1  0  0  0  0
 14 15  2  0  0  0  0
 14 32  1  0  0  0  0
 15 16  1  0  0  0  0
 15 20  1  0  0  0  0
 16 17  1  0  0  0  0
 16 33  1  0  0  0  0
 17 18  1  0  0  0  0
 17 19  2  0  0  0  0
 18 34  1  0  0  0  0
 18 35  1  0  0  0  0
 18 36  1  0  0  0  0
 20 21  1  0  0  0  0
M  END
>  <Energy>
33.4522

$$$$

 OpenBabel04232614443D

 37 38  0  0  0  0  0  0  0  0999 V2000
    0.9843   -0.0655    0.0115 C   0  0  0  0  0  0  0  0  0  0  0  0
    2.5221   -0.1063    0.0987 C   0  0  0  0  0  0  0  0  0  0  0  0
    3.1161   -0.2864   -1.3118 C   0  0  0  0  0  0  0  0  0  0  0  0
    3.0033    1.2579    0.6416 C   0  0  0  0  0  0  0  0  0  0  0  0
    2.9594   -1.2562    1.0133 C   0  0  0  0  0  0  0  0  0  0  0  0
    2.6431   -2.5705    0.7189 C   0  0  0  0  0  0  0  0  0  0  0  0
    3.0784   -3.5146    1.6184 C   0  0  0  0  0  0  0  0  0  0  0  0
    2.8127   -4.8403    1.4273 O   0  0  0  0  0  0  0  0  0  0  0  0
    3.7739   -3.2389    2.7230 N   0  0  0  0  0  0  0  0  0  0  0  0
    4.0410   -1.9465    2.9362 C   0  0  0  0  0  0  0  0  0  0  0  0
    5.0181   -1.5548    4.3639 S   0  0  0  0  0  0  0  0  0  0  0  0
    4.4242    0.1318    4.6942 C   0  0  0  0  0  0  0  0  0  0  0  0
    5.1457    0.7432    5.8736 C   0  0  0  0  0  0  0  0  0  0  0  0
    6.3261    1.4778    5.6817 C   0  0  0  0  0  0  0  0  0  0  0  0
    7.0161    2.0110    6.7722 C   0  0  0  0  0  0  0  0  0  0  0  0
    6.5365    1.8143    8.0655 C   0  0  0  0  0  0  0  0  0  0  0  0
    5.3642    1.0887    8.2695 C   0  0  0  0  0  0  0  0  0  0  0  0
    4.6723    0.5544    7.1804 C   0  0  0  0  0  0  0  0  0  0  0  0
    3.6580   -0.9438    2.1253 N   0  0  0  0  0  0  0  0  0  0  0  0
    0.6456    0.7754   -0.6044 H   0  0  0  0  0  0  0  0  0  0  0  0
    0.5350    0.0454    1.0055 H   0  0  0  0  0  0  0  0  0  0  0  0
    0.5738   -0.9787   -0.4340 H   0  0  0  0  0  0  0  0  0  0  0  0
    2.8309    0.5444   -1.9679 H   0  0  0  0  0  0  0  0  0  0  0  0
    2.7704   -1.2091   -1.7908 H   0  0  0  0  0  0  0  0  0  0  0  0
    4.2115   -0.3237   -1.2788 H   0  0  0  0  0  0  0  0  0  0  0  0
    2.6825    2.0790   -0.0097 H   0  0  0  0  0  0  0  0  0  0  0  0
    4.0972    1.2993    0.7077 H   0  0  0  0  0  0  0  0  0  0  0  0
    2.6014    1.4565    1.6423 H   0  0  0  0  0  0  0  0  0  0  0  0
    2.0832   -2.8411   -0.1645 H   0  0  0  0  0  0  0  0  0  0  0  0
    2.3176   -4.9445    0.6012 H   0  0  0  0  0  0  0  0  0  0  0  0
    3.3465    0.1083    4.8952 H   0  0  0  0  0  0  0  0  0  0  0  0
    4.5744    0.7715    3.8171 H   0  0  0  0  0  0  0  0  0  0  0  0
    6.7208    1.6293    4.6793 H   0  0  0  0  0  0  0  0  0  0  0  0
    7.9335    2.5714    6.6126 H   0  0  0  0  0  0  0  0  0  0  0  0
    7.0805    2.2193    8.9147 H   0  0  0  0  0  0  0  0  0  0  0  0
    4.9936    0.9296    9.2788 H   0  0  0  0  0  0  0  0  0  0  0  0
    3.7669   -0.0218    7.3585 H   0  0  0  0  0  0  0  0  0  0  0  0
  1  2  1  0  0  0  0
  1 20  1  0  0  0  0
  1 21  1  0  0  0  0
  1 22  1  0  0  0  0
  2  3  1  0  0  0  0
  2  4  1  0  0  0  0
  2  5  1  0  0  0  0
  3 23  1  0  0  0  0
  3 24  1  0  0  0  0
  3 25  1  0  0  0  0
  4 26  1  0  0  0  0
  4 27  1  0  0  0  0
  4 28  1  0  0  0  0
  5  6  1  0  0  0  0
  5 19  2  0  0  0  0
  6  7  2  0  0  0  0
  6 29  1  0  0  0  0
  7  8  1  0  0  0  0
  7  9  1  0  0  0  0
  8 30  1  0  0  0  0
  9 10  2  0  0  0  0
 10 11  1  0  0  0  0
 10 19  1  0  0  0  0
 11 12  1  0  0  0  0
 12 13  1  0  0  0  0
 12 31  1  0  0  0  0
 12 32  1  0  0  0  0
 13 14  1  0  0  0  0
 13 18  2  0  0  0  0
 14 15  2  0  0  0  0
 14 33  1  0  0  0  0
 15 16  1  0  0  0  0
 15 34  1  0  0  0  0
 16 17  2  0  0  0  0
 16 35  1  0  0  0  0
 17 18  1  0  0  0  0
 17 36  1  0  0  0  0
 18 37  1  0  0  0  0
M  END
>  <Energy>
-33.1742

$$$$

 OpenBabel04232614443D

 34 36  0  0  0  0  0  0  0  0999 V2000
    7.4429    0.5747    0.7226 C   0  0  0  0  0  0  0  0  0  0  0  0
    6.1611    0.9366    0.2284 O   0  0  0  0  0  0  0  0  0  0  0  0
    5.0935    0.8886    1.0943 C   0  0  0  0  0  0  0  0  0  0  0  0
    5.1991    0.5269    2.4419 C   0  0  0  0  0  0  0  0  0  0  0  0
    4.0714    0.5452    3.2624 C   0  0  0  0  0  0  0  0  0  0  0  0
    2.8371    0.9394    2.7476 C   0  0  0  0  0  0  0  0  0  0  0  0
    2.7190    1.2972    1.4025 C   0  0  0  0  0  0  0  0  0  0  0  0
    3.8302    1.2450    0.5516 C   0  0  0  0  0  0  0  0  0  0  0  0
    3.7445    1.6394   -0.8641 C   0  0  0  0  0  0  0  0  0  0  0  0
    2.8094    1.4932   -1.8177 C   0  0  0  0  0  0  0  0  0  0  0  0
    1.4666    0.8812   -1.8801 C   0  0  0  0  0  0  0  0  0  0  0  0
    1.1770   -0.3203   -1.2532 C   0  0  0  0  0  0  0  0  0  0  0  0
    0.0247   -0.9894   -1.4571 N   0  0  0  0  0  0  0  0  0  0  0  0
   -0.8850   -0.5045   -2.3557 N   0  0  0  0  0  0  0  0  0  0  0  0
   -0.6726    0.6519   -3.0028 C   0  0  0  0  0  0  0  0  0  0  0  0
   -1.5997    1.1012   -3.9413 C   0  0  0  0  0  0  0  0  0  0  0  0
   -1.4328    2.3082   -4.6258 C   0  0  0  0  0  0  0  0  0  0  0  0
   -0.3314    3.0997   -4.3554 C   0  0  0  0  0  0  0  0  0  0  0  0
    0.6173    2.6578   -3.4325 C   0  0  0  0  0  0  0  0  0  0  0  0
    0.4878    1.4124   -2.7637 C   0  0  0  0  0  0  0  0  0  0  0  0
    8.1660    0.7320   -0.0844 H   0  0  0  0  0  0  0  0  0  0  0  0
    7.4676   -0.4851    0.9926 H   0  0  0  0  0  0  0  0  0  0  0  0
    7.7470    1.2088    1.5619 H   0  0  0  0  0  0  0  0  0  0  0  0
    6.1442    0.2336    2.8845 H   0  0  0  0  0  0  0  0  0  0  0  0
    4.1591    0.2637    4.3089 H   0  0  0  0  0  0  0  0  0  0  0  0
    1.9681    0.9791    3.3994 H   0  0  0  0  0  0  0  0  0  0  0  0
    1.7520    1.6305    1.0334 H   0  0  0  0  0  0  0  0  0  0  0  0
    4.6596    2.1333   -1.2036 H   0  0  0  0  0  0  0  0  0  0  0  0
    3.1202    1.8690   -2.7930 H   0  0  0  0  0  0  0  0  0  0  0  0
    1.8712   -0.8116   -0.5817 H   0  0  0  0  0  0  0  0  0  0  0  0
   -2.4722    0.4880   -4.1540 H   0  0  0  0  0  0  0  0  0  0  0  0
   -2.1699    2.6286   -5.3595 H   0  0  0  0  0  0  0  0  0  0  0  0
   -0.1975    4.0541   -4.8573 H   0  0  0  0  0  0  0  0  0  0  0  0
    1.4665    3.3083   -3.2340 H   0  0  0  0  0  0  0  0  0  0  0  0
  1  2  1  0  0  0  0
  1 21  1  0  0  0  0
  1 22  1  0  0  0  0
  1 23  1  0  0  0  0
  2  3  1  0  0  0  0
  3  4  1  0  0  0  0
  3  8  2  0  0  0  0
  4  5  2  0  0  0  0
  4 24  1  0  0  0  0
  5  6  1  0  0  0  0
  5 25  1  0  0  0  0
  6  7  2  0  0  0  0
  6 26  1  0  0  0  0
  7  8  1  0  0  0  0
  7 27  1  0  0  0  0
  8  9  1  0  0  0  0
  9 10  2  0  0  0  0
  9 28  1  0  0  0  0
 10 11  1  0  0  0  0
 10 29  1  0  0  0  0
 11 12  1  0  0  0  0
 11 20  2  0  0  0  0
 12 13  2  0  0  0  0
 12 30  1  0  0  0  0
 13 14  1  0  0  0  0
 14 15  2  0  0  0  0
 15 16  1  0  0  0  0
 15 20  1  0  0  0  0
 16 17  2  0  0  0  0
 16 31  1  0  0  0  0
 17 18  1  0  0  0  0
 17 32  1  0  0  0  0
 18 19  2  0  0  0  0
 18 33  1  0  0  0  0
 19 20  1  0  0  0  0
 19 34  1  0  0  0  0
M  END
>  <Energy>
94.9054

$$$$

 OpenBabel04232614443D

 40 42  0  0  0  0  0  0  0  0999 V2000
    3.5856    0.0052   -0.9823 C   0  0  0  0  0  0  0  0  0  0  0  0
    2.4745   -0.0168    0.0522 C   0  0  0  0  0  0  0  0  0  0  0  0
    2.9369    0.3733    1.3675 N   0  0  0  0  0  0  0  0  0  0  0  0
    2.9423    1.6541    1.8482 C   0  0  0  0  0  0  0  0  0  0  0  0
    3.3944    1.7087    3.0796 N   0  0  0  0  0  0  0  0  0  0  0  0
    3.6930    0.4082    3.4102 C   0  0  0  0  0  0  0  0  0  0  0  0
    4.2134   -0.1130    4.6057 C   0  0  0  0  0  0  0  0  0  0  0  0
    4.4199   -1.4976    4.7465 C   0  0  0  0  0  0  0  0  0  0  0  0
    5.0038   -1.9670    5.9320 N   0  0  0  0  0  0  0  0  0  0  0  0
    4.7036   -3.3188    6.3927 C   0  0  0  0  0  0  0  0  0  0  0  0
    5.4410   -3.5798    7.6885 C   0  0  0  0  0  0  0  0  0  0  0  0
    4.7519   -3.9010    8.8638 C   0  0  0  0  0  0  0  0  0  0  0  0
    5.4528   -4.1294   10.0531 C   0  0  0  0  0  0  0  0  0  0  0  0
    6.8465   -4.0577   10.0882 C   0  0  0  0  0  0  0  0  0  0  0  0
    7.4112   -4.2584   11.3160 O   0  0  0  0  0  0  0  0  0  0  0  0
    8.7478   -4.7477   11.3224 C   0  0  0  0  0  0  0  0  0  0  0  0
    7.5409   -3.7395    8.9204 C   0  0  0  0  0  0  0  0  0  0  0  0
    6.8411   -3.5064    7.7301 C   0  0  0  0  0  0  0  0  0  0  0  0
    4.1643   -2.3227    3.6415 C   0  0  0  0  0  0  0  0  0  0  0  0
    3.6499   -1.8285    2.4314 C   0  0  0  0  0  0  0  0  0  0  0  0
    3.4173   -0.4536    2.3534 C   0  0  0  0  0  0  0  0  0  0  0  0
    3.1925   -0.2698   -1.9663 H   0  0  0  0  0  0  0  0  0  0  0  0
    4.3818   -0.6999   -0.7226 H   0  0  0  0  0  0  0  0  0  0  0  0
    4.0335    1.0015   -1.0610 H   0  0  0  0  0  0  0  0  0  0  0  0
    2.0340   -1.0169    0.1272 H   0  0  0  0  0  0  0  0  0  0  0  0
    1.6734    0.6735   -0.2353 H   0  0  0  0  0  0  0  0  0  0  0  0
    2.6096    2.5021    1.2638 H   0  0  0  0  0  0  0  0  0  0  0  0
    4.4400    0.5738    5.4132 H   0  0  0  0  0  0  0  0  0  0  0  0
    4.9132   -1.2921    6.6889 H   0  0  0  0  0  0  0  0  0  0  0  0
    5.0230   -4.0780    5.6701 H   0  0  0  0  0  0  0  0  0  0  0  0
    3.6225   -3.4267    6.5449 H   0  0  0  0  0  0  0  0  0  0  0  0
    3.6670   -3.9714    8.8706 H   0  0  0  0  0  0  0  0  0  0  0  0
    4.9071   -4.3659   10.9635 H   0  0  0  0  0  0  0  0  0  0  0  0
    9.0611   -4.8403   12.3673 H   0  0  0  0  0  0  0  0  0  0  0  0
    9.4463   -4.0599   10.8380 H   0  0  0  0  0  0  0  0  0  0  0  0
    8.7934   -5.7421   10.8668 H   0  0  0  0  0  0  0  0  0  0  0  0
    8.6193   -3.6359    8.9039 H   0  0  0  0  0  0  0  0  0  0  0  0
    7.3937   -3.2399    6.8301 H   0  0  0  0  0  0  0  0  0  0  0  0
    4.3843   -3.3862    3.6883 H   0  0  0  0  0  0  0  0  0  0  0  0
    3.4640   -2.4932    1.5948 H   0  0  0  0  0  0  0  0  0  0  0  0
  1  2  1  0  0  0  0
  1 22  1  0  0  0  0
  1 23  1  0  0  0  0
  1 24  1  0  0  0  0
  2  3  1  0  0  0  0
  2 25  1  0  0  0  0
  2 26  1  0  0  0  0
  3  4  1  0  0  0  0
  3 21  1  0  0  0  0
  4  5  2  0  0  0  0
  4 27  1  0  0  0  0
  5  6  1  0  0  0  0
  6  7  1  0  0  0  0
  6 21  2  0  0  0  0
  7  8  2  0  0  0  0
  7 28  1  0  0  0  0
  8  9  1  0  0  0  0
  8 19  1  0  0  0  0
  9 10  1  0  0  0  0
  9 29  1  0  0  0  0
 10 11  1  0  0  0  0
 10 30  1  0  0  0  0
 10 31  1  0  0  0  0
 11 12  1  0  0  0  0
 11 18  2  0  0  0  0
 12 13  2  0  0  0  0
 12 32  1  0  0  0  0
 13 14  1  0  0  0  0
 13 33  1  0  0  0  0
 14 15  1  0  0  0  0
 14 17  2  0  0  0  0
 15 16  1  0  0  0  0
 16 34  1  0  0  0  0
 16 35  1  0  0  0  0
 16 36  1  0  0  0  0
 17 18  1  0  0  0  0
 17 37  1  0  0  0  0
 18 38  1  0  0  0  0
 19 20  2  0  0  0  0
 19 39  1  0  0  0  0
 20 21  1  0  0  0  0
 20 40  1  0  0  0  0
M  END
>  <Energy>
30.2561

$$$$

 OpenBabel04232614443D

 34 37  0  0  0  0  0  0  0  0999 V2000
   -2.3836   -0.7117    0.0492 C   0  0  0  0  0  0  0  0  0  0  0  0
   -2.3294    0.6668    0.0496 C   0  0  0  0  0  0  0  0  0  0  0  0
   -1.1797    1.3784    0.0305 N   0  0  0  0  0  0  0  0  0  0  0  0
    0.0021    0.7126    0.0129 C   0  0  0  0  0  0  0  0  0  0  0  0
    1.2354    1.3965   -0.0074 C   0  0  0  0  0  0  0  0  0  0  0  0
    1.1519    2.7738   -0.0134 O   0  0  0  0  0  0  0  0  0  0  0  0
    2.3712    3.5184   -0.0338 C   0  0  0  0  0  0  0  0  0  0  0  0
    2.0206    4.9717   -0.0350 C   0  0  0  0  0  0  0  0  0  0  0  0
    2.8615    5.9903   -0.0545 N   0  0  0  0  0  0  0  0  0  0  0  0
    2.0754    7.1191   -0.0493 C   0  0  0  0  0  0  0  0  0  0  0  0
    2.4450    8.4722   -0.0632 C   0  0  0  0  0  0  0  0  0  0  0  0
    1.4371    9.4457   -0.0540 C   0  0  0  0  0  0  0  0  0  0  0  0
    0.0885    9.0797   -0.0338 C   0  0  0  0  0  0  0  0  0  0  0  0
   -0.2997    7.7344   -0.0201 C   0  0  0  0  0  0  0  0  0  0  0  0
    0.7259    6.7860   -0.0269 C   0  0  0  0  0  0  0  0  0  0  0  0
    0.7198    5.4169   -0.0148 N   0  0  0  0  0  0  0  0  0  0  0  0
    2.4492    0.6928   -0.0204 C   0  0  0  0  0  0  0  0  0  0  0  0
    2.4552   -0.6992   -0.0146 C   0  0  0  0  0  0  0  0  0  0  0  0
    1.2524   -1.3949    0.0014 C   0  0  0  0  0  0  0  0  0  0  0  0
    0.0321   -0.7026    0.0149 C   0  0  0  0  0  0  0  0  0  0  0  0
   -1.1816   -1.4040    0.0312 C   0  0  0  0  0  0  0  0  0  0  0  0
   -3.3337   -1.2337    0.0634 H   0  0  0  0  0  0  0  0  0  0  0  0
   -3.2388    1.2607    0.0660 H   0  0  0  0  0  0  0  0  0  0  0  0
    2.9417    3.2921   -0.9419 H   0  0  0  0  0  0  0  0  0  0  0  0
    2.9663    3.2998    0.8601 H   0  0  0  0  0  0  0  0  0  0  0  0
    3.4932    8.7477   -0.0810 H   0  0  0  0  0  0  0  0  0  0  0  0
    1.7108   10.4981   -0.0637 H   0  0  0  0  0  0  0  0  0  0  0  0
   -0.6754    9.8548   -0.0286 H   0  0  0  0  0  0  0  0  0  0  0  0
   -1.3458    7.4491   -0.0050 H   0  0  0  0  0  0  0  0  0  0  0  0
   -0.0910    4.8114    0.0050 H   0  0  0  0  0  0  0  0  0  0  0  0
    3.4091    1.1983   -0.0345 H   0  0  0  0  0  0  0  0  0  0  0  0
    3.3982   -1.2409   -0.0227 H   0  0  0  0  0  0  0  0  0  0  0  0
    1.2719   -2.4828    0.0047 H   0  0  0  0  0  0  0  0  0  0  0  0
   -1.1954   -2.4914    0.0303 H   0  0  0  0  0  0  0  0  0  0  0  0
  1  2  1  0  0  0  0
  1 21  2  0  0  0  0
  1 22  1  0  0  0  0
  2  3  2  0  0  0  0
  2 23  1  0  0  0  0
  3  4  1  0  0  0  0
  4  5  1  0  0  0  0
  4 20  2  0  0  0  0
  5  6  1  0  0  0  0
  5 17  2  0  0  0  0
  6  7  1  0  0  0  0
  7  8  1  0  0  0  0
  7 24  1  0  0  0  0
  7 25  1  0  0  0  0
  8  9  2  0  0  0  0
  8 16  1  0  0  0  0
  9 10  1  0  0  0  0
 10 11  1  0  0  0  0
 10 15  2  0  0  0  0
 11 12  2  0  0  0  0
 11 26  1  0  0  0  0
 12 13  1  0  0  0  0
 12 27  1  0  0  0  0
 13 14  2  0  0  0  0
 13 28  1  0  0  0  0
 14 15  1  0  0  0  0
 14 29  1  0  0  0  0
 15 16  1  0  0  0  0
 16 30  1  0  0  0  0
 17 18  1  0  0  0  0
 17 31  1  0  0  0  0
 18 19  2  0  0  0  0
 18 32  1  0  0  0  0
 19 20  1  0  0  0  0
 19 33  1  0  0  0  0
 20 21  1  0  0  0  0
 21 34  1  0  0  0  0
M  END
>  <Energy>
77.1079

$$$$

 OpenBabel04232614443D

 35 37  0  0  0  0  0  0  0  0999 V2000
    1.6683    2.3340   -0.0005 C   0  0  0  0  0  0  0  0  0  0  0  0
    1.3077    0.8725   -0.0016 C   0  0  0  0  0  0  0  0  0  0  0  0
    2.3308   -0.0913    0.0040 C   0  0  0  0  0  0  0  0  0  0  0  0
    2.0205   -1.4467    0.0044 C   0  0  0  0  0  0  0  0  0  0  0  0
    0.6883   -1.8457   -0.0004 C   0  0  0  0  0  0  0  0  0  0  0  0
   -0.3408   -0.8907   -0.0076 C   0  0  0  0  0  0  0  0  0  0  0  0
   -1.6877   -1.2742   -0.0137 C   0  0  0  0  0  0  0  0  0  0  0  0
   -2.6864   -0.3066   -0.0234 C   0  0  0  0  0  0  0  0  0  0  0  0
   -2.3116    1.0267   -0.0248 C   0  0  0  0  0  0  0  0  0  0  0  0
   -3.3275    2.0869   -0.0126 C   0  0  0  0  0  0  0  0  0  0  0  0
   -3.0070    3.3889    0.0140 C   0  0  0  0  0  0  0  0  0  0  0  0
   -4.0643    4.4264    0.0893 C   0  0  0  0  0  0  0  0  0  0  0  0
   -5.2144    4.2193   -0.2811 O   0  0  0  0  0  0  0  0  0  0  0  0
   -3.6651    5.7550    0.6213 C   0  0  0  0  0  0  0  0  0  0  0  0
   -4.3469    6.8885    0.1808 C   0  0  0  0  0  0  0  0  0  0  0  0
   -3.9645    8.1140    0.6958 C   0  0  0  0  0  0  0  0  0  0  0  0
   -2.9781    8.2712    1.6057 N   0  0  0  0  0  0  0  0  0  0  0  0
   -2.3510    7.1550    2.0310 C   0  0  0  0  0  0  0  0  0  0  0  0
   -2.6549    5.8850    1.5766 C   0  0  0  0  0  0  0  0  0  0  0  0
   -1.0153    1.4201   -0.0123 N   0  0  0  0  0  0  0  0  0  0  0  0
   -0.0397    0.4887   -0.0080 C   0  0  0  0  0  0  0  0  0  0  0  0
    2.7533    2.4810   -0.0037 H   0  0  0  0  0  0  0  0  0  0  0  0
    1.2703    2.8219    0.8955 H   0  0  0  0  0  0  0  0  0  0  0  0
    1.2650    2.8254   -0.8920 H   0  0  0  0  0  0  0  0  0  0  0  0
    3.3746    0.2149    0.0077 H   0  0  0  0  0  0  0  0  0  0  0  0
    2.8146   -2.1884    0.0084 H   0  0  0  0  0  0  0  0  0  0  0  0
    0.4545   -2.9087   -0.0006 H   0  0  0  0  0  0  0  0  0  0  0  0
   -1.9653   -2.3250   -0.0099 H   0  0  0  0  0  0  0  0  0  0  0  0
   -3.7305   -0.6003   -0.0254 H   0  0  0  0  0  0  0  0  0  0  0  0
   -4.3685    1.7767    0.0015 H   0  0  0  0  0  0  0  0  0  0  0  0
   -1.9738    3.7179    0.0013 H   0  0  0  0  0  0  0  0  0  0  0  0
   -5.1503    6.8203   -0.5451 H   0  0  0  0  0  0  0  0  0  0  0  0
   -4.4551    9.0319    0.3842 H   0  0  0  0  0  0  0  0  0  0  0  0
   -1.5757    7.3124    2.7758 H   0  0  0  0  0  0  0  0  0  0  0  0
   -2.1248    5.0309    1.9829 H   0  0  0  0  0  0  0  0  0  0  0  0
  1  2  1  0  0  0  0
  1 22  1  0  0  0  0
  1 23  1  0  0  0  0
  1 24  1  0  0  0  0
  2  3  1  0  0  0  0
  2 21  2  0  0  0  0
  3  4  2  0  0  0  0
  3 25  1  0  0  0  0
  4  5  1  0  0  0  0
  4 26  1  0  0  0  0
  5  6  2  0  0  0  0
  5 27  1  0  0  0  0
  6  7  1  0  0  0  0
  6 21  1  0  0  0  0
  7  8  2  0  0  0  0
  7 28  1  0  0  0  0
  8  9  1  0  0  0  0
  8 29  1  0  0  0  0
  9 10  1  0  0  0  0
  9 20  2  0  0  0  0
 10 11  2  0  0  0  0
 10 30  1  0  0  0  0
 11 12  1  0  0  0  0
 11 31  1  0  0  0  0
 12 13  2  0  0  0  0
 12 14  1  0  0  0  0
 14 15  1  0  0  0  0
 14 19  2  0  0  0  0
 15 16  2  0  0  0  0
 15 32  1  0  0  0  0
 16 17  1  0  0  0  0
 16 33  1  0  0  0  0
 17 18  2  0  0  0  0
 18 19  1  0  0  0  0
 18 34  1  0  0  0  0
 19 35  1  0  0  0  0
 20 21  1  0  0  0  0
M  END
>  <Energy>
49.0566

$$$$

 OpenBabel04232614443D

 36 38  0  0  0  0  0  0  0  0999 V2000
    0.9945   -0.1019   -0.0008 C   0  0  0  0  0  0  0  0  0  0  0  0
    2.4970    0.0050   -0.0357 C   0  0  0  0  0  0  0  0  0  0  0  0
    3.1717   -1.1709   -0.0431 N   0  0  0  0  0  0  0  0  0  0  0  0
    4.5223   -1.1558   -0.0789 C   0  0  0  0  0  0  0  0  0  0  0  0
    5.2107   -2.3809   -0.0169 N   0  0  0  0  0  0  0  0  0  0  0  0
    4.4203   -3.5784   -0.2702 C   0  0  0  0  0  0  0  0  0  0  0  0
    5.3397   -4.7770   -0.1428 C   0  0  0  0  0  0  0  0  0  0  0  0
    5.7787   -5.1907    1.1246 C   0  0  0  0  0  0  0  0  0  0  0  0
    6.6558   -6.2681    1.2585 C   0  0  0  0  0  0  0  0  0  0  0  0
    7.1088   -6.9422    0.1268 C   0  0  0  0  0  0  0  0  0  0  0  0
    6.6875   -6.5377   -1.1392 C   0  0  0  0  0  0  0  0  0  0  0  0
    5.8093   -5.4587   -1.2755 C   0  0  0  0  0  0  0  0  0  0  0  0
    5.2618    0.0575   -0.1032 C   0  0  0  0  0  0  0  0  0  0  0  0
    6.6796    0.1052   -0.1345 C   0  0  0  0  0  0  0  0  0  0  0  0
    7.3783    1.3084   -0.2184 C   0  0  0  0  0  0  0  0  0  0  0  0
    6.6809    2.5037   -0.2415 C   0  0  0  0  0  0  0  0  0  0  0  0
    5.2875    2.4928   -0.1777 C   0  0  0  0  0  0  0  0  0  0  0  0
    4.5495    1.2825   -0.1144 C   0  0  0  0  0  0  0  0  0  0  0  0
    3.1379    1.2443   -0.0663 C   0  0  0  0  0  0  0  0  0  0  0  0
    2.3590    2.4486   -0.0536 C   0  0  0  0  0  0  0  0  0  0  0  0
    1.7229    3.4223   -0.0433 N   0  0  0  0  0  0  0  0  0  0  0  0
    0.6784   -1.1503    0.0069 H   0  0  0  0  0  0  0  0  0  0  0  0
    0.5585    0.3711   -0.8865 H   0  0  0  0  0  0  0  0  0  0  0  0
    0.5959    0.3749    0.9003 H   0  0  0  0  0  0  0  0  0  0  0  0
    6.0091   -2.3660   -0.6405 H   0  0  0  0  0  0  0  0  0  0  0  0
    3.9964   -3.5464   -1.2823 H   0  0  0  0  0  0  0  0  0  0  0  0
    3.5921   -3.6899    0.4401 H   0  0  0  0  0  0  0  0  0  0  0  0
    5.4438   -4.6581    2.0129 H   0  0  0  0  0  0  0  0  0  0  0  0
    6.9894   -6.5759    2.2460 H   0  0  0  0  0  0  0  0  0  0  0  0
    7.7939   -7.7798    0.2314 H   0  0  0  0  0  0  0  0  0  0  0  0
    7.0468   -7.0621   -2.0211 H   0  0  0  0  0  0  0  0  0  0  0  0
    5.4991   -5.1535   -2.2721 H   0  0  0  0  0  0  0  0  0  0  0  0
    7.2659   -0.8103   -0.0951 H   0  0  0  0  0  0  0  0  0  0  0  0
    8.4644    1.3048   -0.2637 H   0  0  0  0  0  0  0  0  0  0  0  0
    7.2167    3.4477   -0.3050 H   0  0  0  0  0  0  0  0  0  0  0  0
    4.7820    3.4586   -0.1864 H   0  0  0  0  0  0  0  0  0  0  0  0
  1  2  1  0  0  0  0
  1 22  1  0  0  0  0
  1 23  1  0  0  0  0
  1 24  1  0  0  0  0
  2  3  1  0  0  0  0
  2 19  2  0  0  0  0
  3  4  2  0  0  0  0
  4  5  1  0  0  0  0
  4 13  1  0  0  0  0
  5  6  1  0  0  0  0
  5 25  1  0  0  0  0
  6  7  1  0  0  0  0
  6 26  1  0  0  0  0
  6 27  1  0  0  0  0
  7  8  1  0  0  0  0
  7 12  2  0  0  0  0
  8  9  2  0  0  0  0
  8 28  1  0  0  0  0
  9 10  1  0  0  0  0
  9 29  1  0  0  0  0
 10 11  2  0  0  0  0
 10 30  1  0  0  0  0
 11 12  1  0  0  0  0
 11 31  1  0  0  0  0
 12 32  1  0  0  0  0
 13 14  1  0  0  0  0
 13 18  2  0  0  0  0
 14 15  2  0  0  0  0
 14 33  1  0  0  0  0
 15 16  1  0  0  0  0
 15 34  1  0  0  0  0
 16 17  2  0  0  0  0
 16 35  1  0  0  0  0
 17 18  1  0  0  0  0
 17 36  1  0  0  0  0
 18 19  1  0  0  0  0
 19 20  1  0  0  0  0
 20 21  3  0  0  0  0
M  END
>  <Energy>
33.7056

$$$$

 OpenBabel04232614443D

 26 27  0  0  1  0  0  0  0  0999 V2000
    1.0938   -0.0329   -0.0109 N   0  0  0  0  0  0  0  0  0  0  0  0
    2.3548   -0.0329   -0.0109 C   0  0  0  0  0  0  0  0  0  0  0  0
    3.8748   -0.0329   -0.0109 C   0  0  3  0  0  0  0  0  0  0  0  0
    4.6070    0.0219   -1.7022 S   0  0  0  0  0  0  0  0  0  0  0  0
    3.8318   -1.3985   -2.4334 C   0  0  0  0  0  0  0  0  0  0  0  0
    3.6353   -1.4275   -3.8101 C   0  0  0  0  0  0  0  0  0  0  0  0
    3.0095   -2.5354   -4.3736 C   0  0  0  0  0  0  0  0  0  0  0  0
    2.6066   -3.5775   -3.5493 C   0  0  0  0  0  0  0  0  0  0  0  0
    2.8581   -3.4704   -2.1911 C   0  0  0  0  0  0  0  0  0  0  0  0
    3.4680   -2.4091   -1.6156 N   0  0  0  0  0  0  0  0  0  0  0  0
    4.3381    1.2044    0.7706 C   0  0  0  0  0  0  0  0  0  0  0  0
    5.1341    1.0715    1.9184 C   0  0  0  0  0  0  0  0  0  0  0  0
    5.4956    2.1985    2.6649 C   0  0  0  0  0  0  0  0  0  0  0  0
    5.0688    3.4662    2.2713 C   0  0  0  0  0  0  0  0  0  0  0  0
    5.4978    4.8451    3.2061 Cl  0  0  0  0  0  0  0  0  0  0  0  0
    4.2908    3.6223    1.1301 C   0  0  0  0  0  0  0  0  0  0  0  0
    3.9288    2.4998    0.3829 C   0  0  0  0  0  0  0  0  0  0  0  0
    4.2314   -0.9380    0.4941 H   0  0  0  0  0  0  0  0  0  0  0  0
    3.9494   -0.6012   -4.4392 H   0  0  0  0  0  0  0  0  0  0  0  0
    2.8325   -2.5791   -5.4447 H   0  0  0  0  0  0  0  0  0  0  0  0
    2.1088   -4.4513   -3.9539 H   0  0  0  0  0  0  0  0  0  0  0  0
    2.5618   -4.2619   -1.5076 H   0  0  0  0  0  0  0  0  0  0  0  0
    5.4700    0.0905    2.2528 H   0  0  0  0  0  0  0  0  0  0  0  0
    6.1019    2.0813    3.5597 H   0  0  0  0  0  0  0  0  0  0  0  0
    3.9529    4.6078    0.8203 H   0  0  0  0  0  0  0  0  0  0  0  0
    3.3075    2.6464   -0.5000 H   0  0  0  0  0  0  0  0  0  0  0  0
  1  2  3  0  0  0  0
  2  3  1  0  0  0  0
  3  4  1  0  0  0  0
  3 11  1  0  0  0  0
  3 18  1  0  0  0  0
  4  5  1  0  0  0  0
  5  6  1  0  0  0  0
  5 10  2  0  0  0  0
  6  7  2  0  0  0  0
  6 19  1  0  0  0  0
  7  8  1  0  0  0  0
  7 20  1  0  0  0  0
  8  9  2  0  0  0  0
  8 21  1  0  0  0  0
  9 10  1  0  0  0  0
  9 22  1  0  0  0  0
 11 12  1  0  0  0  0
 11 17  2  0  0  0  0
 12 13  2  0  0  0  0
 12 23  1  0  0  0  0
 13 14  1  0  0  0  0
 13 24  1  0  0  0  0
 14 15  1  0  0  0  0
 14 16  2  0  0  0  0
 16 17  1  0  0  0  0
 16 25  1  0  0  0  0
 17 26  1  0  0  0  0
M  END
>  <Energy>
184.46

$$$$

 OpenBabel04232614443D

 30 32  0  0  0  0  0  0  0  0999 V2000
    2.7911    0.7535   -0.8230 O   0  0  0  0  0  0  0  0  0  0  0  0
    2.2606    0.1114    0.0825 C   0  0  0  0  0  0  0  0  0  0  0  0
    0.7751   -0.0208    0.0462 C   0  0  0  0  0  0  0  0  0  0  0  0
    0.1318   -0.0671   -1.1976 C   0  0  0  0  0  0  0  0  0  0  0  0
   -1.2583   -0.1748   -1.2641 C   0  0  0  0  0  0  0  0  0  0  0  0
   -2.0106   -0.2280   -0.0905 C   0  0  0  0  0  0  0  0  0  0  0  0
   -1.3779   -0.1609    1.1494 C   0  0  0  0  0  0  0  0  0  0  0  0
    0.0112   -0.0486    1.2216 C   0  0  0  0  0  0  0  0  0  0  0  0
    2.9967   -0.5130    1.1617 C   0  0  0  0  0  0  0  0  0  0  0  0
    2.7442   -1.6710    1.8678 C   0  0  0  0  0  0  0  0  0  0  0  0
    3.6484   -1.9749    2.8657 N   0  0  0  0  0  0  0  0  0  0  0  0
    4.5952   -1.0564    2.9162 C   0  0  0  0  0  0  0  0  0  0  0  0
    5.7311   -1.0902    3.8511 C   0  0  0  0  0  0  0  0  0  0  0  0
    6.2275   -2.3334    4.2751 C   0  0  0  0  0  0  0  0  0  0  0  0
    7.3136   -2.4133    5.1499 C   0  0  0  0  0  0  0  0  0  0  0  0
    7.9111   -1.2488    5.6254 C   0  0  0  0  0  0  0  0  0  0  0  0
    7.4190   -0.0061    5.2333 C   0  0  0  0  0  0  0  0  0  0  0  0
    6.3353    0.0735    4.3536 C   0  0  0  0  0  0  0  0  0  0  0  0
    4.4525    0.1865    1.7300 S   0  0  0  0  0  0  0  0  0  0  0  0
    0.7109   -0.0154   -2.1182 H   0  0  0  0  0  0  0  0  0  0  0  0
   -1.7550   -0.2105   -2.2305 H   0  0  0  0  0  0  0  0  0  0  0  0
   -3.0940   -0.3092   -0.1439 H   0  0  0  0  0  0  0  0  0  0  0  0
   -1.9690   -0.1859    2.0628 H   0  0  0  0  0  0  0  0  0  0  0  0
    0.4760    0.0370    2.2009 H   0  0  0  0  0  0  0  0  0  0  0  0
    1.9102   -2.3432    1.7017 H   0  0  0  0  0  0  0  0  0  0  0  0
    5.7686   -3.2526    3.9136 H   0  0  0  0  0  0  0  0  0  0  0  0
    7.6910   -3.3851    5.4574 H   0  0  0  0  0  0  0  0  0  0  0  0
    8.7575   -1.3098    6.3047 H   0  0  0  0  0  0  0  0  0  0  0  0
    7.8775    0.9039    5.6123 H   0  0  0  0  0  0  0  0  0  0  0  0
    5.9666    1.0588    4.0778 H   0  0  0  0  0  0  0  0  0  0  0  0
  1  2  2  0  0  0  0
  2  3  1  0  0  0  0
  2  9  1  0  0  0  0
  3  4  1  0  0  0  0
  3  8  2  0  0  0  0
  4  5  2  0  0  0  0
  4 20  1  0  0  0  0
  5  6  1  0  0  0  0
  5 21  1  0  0  0  0
  6  7  2  0  0  0  0
  6 22  1  0  0  0  0
  7  8  1  0  0  0  0
  7 23  1  0  0  0  0
  8 24  1  0  0  0  0
  9 10  2  0  0  0  0
  9 19  1  0  0  0  0
 10 11  1  0  0  0  0
 10 25  1  0  0  0  0
 11 12  2  0  0  0  0
 12 13  1  0  0  0  0
 12 19  1  0  0  0  0
 13 14  1  0  0  0  0
 13 18  2  0  0  0  0
 14 15  2  0  0  0  0
 14 26  1  0  0  0  0
 15 16  1  0  0  0  0
 15 27  1  0  0  0  0
 16 17  2  0  0  0  0
 16 28  1  0  0  0  0
 17 18  1  0  0  0  0
 17 29  1  0  0  0  0
 18 30  1  0  0  0  0
M  END
>  <Energy>
80.9156

$$$$

 OpenBabel04232614443D

 34 36  0  0  0  0  0  0  0  0999 V2000
    2.0196    0.9920    2.2270 O   0  0  0  0  0  0  0  0  0  0  0  0
    0.8753    1.7325    2.2727 C   0  0  0  0  0  0  0  0  0  0  0  0
    0.5192    2.4430    3.4156 C   0  0  0  0  0  0  0  0  0  0  0  0
   -0.6469    3.2090    3.4103 C   0  0  0  0  0  0  0  0  0  0  0  0
   -1.4505    3.2533    2.2689 C   0  0  0  0  0  0  0  0  0  0  0  0
   -1.1113    2.4932    1.1439 C   0  0  0  0  0  0  0  0  0  0  0  0
   -1.8470    2.4744   -0.0192 O   0  0  0  0  0  0  0  0  0  0  0  0
   -3.2167    2.4768    0.0499 C   0  0  0  0  0  0  0  0  0  0  0  0
   -3.9674    1.8736    1.0521 C   0  0  0  0  0  0  0  0  0  0  0  0
   -5.3587    1.9673    1.0163 C   0  0  0  0  0  0  0  0  0  0  0  0
   -5.9789    2.6294   -0.0446 C   0  0  0  0  0  0  0  0  0  0  0  0
   -7.4434    2.7866   -0.1336 C   0  0  0  0  0  0  0  0  0  0  0  0
   -8.0983    2.7779   -1.3791 C   0  0  0  0  0  0  0  0  0  0  0  0
   -9.4886    2.9102   -1.4747 C   0  0  0  0  0  0  0  0  0  0  0  0
  -10.2558    3.0610   -0.3241 C   0  0  0  0  0  0  0  0  0  0  0  0
   -9.6235    3.0862    0.9124 C   0  0  0  0  0  0  0  0  0  0  0  0
  -10.3272    3.2411    2.0709 O   0  0  0  0  0  0  0  0  0  0  0  0
   -8.2402    2.9533    1.0136 C   0  0  0  0  0  0  0  0  0  0  0  0
   -5.2583    3.1616   -1.0653 N   0  0  0  0  0  0  0  0  0  0  0  0
   -3.9068    3.0733   -0.9944 C   0  0  0  0  0  0  0  0  0  0  0  0
    0.0721    1.7544    1.1379 C   0  0  0  0  0  0  0  0  0  0  0  0
    2.4810    1.0782    3.0772 H   0  0  0  0  0  0  0  0  0  0  0  0
    1.1363    2.4207    4.3083 H   0  0  0  0  0  0  0  0  0  0  0  0
   -0.9299    3.7766    4.2933 H   0  0  0  0  0  0  0  0  0  0  0  0
   -2.3399    3.8777    2.2728 H   0  0  0  0  0  0  0  0  0  0  0  0
   -3.4930    1.3366    1.8677 H   0  0  0  0  0  0  0  0  0  0  0  0
   -5.9424    1.5120    1.8099 H   0  0  0  0  0  0  0  0  0  0  0  0
   -7.5156    2.6620   -2.2924 H   0  0  0  0  0  0  0  0  0  0  0  0
   -9.9649    2.8958   -2.4520 H   0  0  0  0  0  0  0  0  0  0  0  0
  -11.3341    3.1643   -0.4101 H   0  0  0  0  0  0  0  0  0  0  0  0
  -11.2670    3.3439    1.8492 H   0  0  0  0  0  0  0  0  0  0  0  0
   -7.7912    3.0007    2.0022 H   0  0  0  0  0  0  0  0  0  0  0  0
   -3.3743    3.5177   -1.8304 H   0  0  0  0  0  0  0  0  0  0  0  0
    0.3659    1.1959    0.2541 H   0  0  0  0  0  0  0  0  0  0  0  0
  1  2  1  0  0  0  0
  1 22  1  0  0  0  0
  2  3  1  0  0  0  0
  2 21  2  0  0  0  0
  3  4  2  0  0  0  0
  3 23  1  0  0  0  0
  4  5  1  0  0  0  0
  4 24  1  0  0  0  0
  5  6  2  0  0  0  0
  5 25  1  0  0  0  0
  6  7  1  0  0  0  0
  6 21  1  0  0  0  0
  7  8  1  0  0  0  0
  8  9  1  0  0  0  0
  8 20  2  0  0  0  0
  9 10  2  0  0  0  0
  9 26  1  0  0  0  0
 10 11  1  0  0  0  0
 10 27  1  0  0  0  0
 11 12  1  0  0  0  0
 11 19  2  0  0  0  0
 12 13  1  0  0  0  0
 12 18  2  0  0  0  0
 13 14  2  0  0  0  0
 13 28  1  0  0  0  0
 14 15  1  0  0  0  0
 14 29  1  0  0  0  0
 15 16  2  0  0  0  0
 15 30  1  0  0  0  0
 16 17  1  0  0  0  0
 16 18  1  0  0  0  0
 17 31  1  0  0  0  0
 18 32  1  0  0  0  0
 19 20  1  0  0  0  0
 20 33  1  0  0  0  0
 21 34  1  0  0  0  0
M  END
>  <Energy>
52.7638

$$$$

 OpenBabel04232614443D

 32 34  0  0  0  0  0  0  0  0999 V2000
    2.6113    0.9717    0.8109 O   0  0  0  0  0  0  0  0  0  0  0  0
    2.1887    0.0223    0.1589 C   0  0  0  0  0  0  0  0  0  0  0  0
    1.0324   -0.0010   -0.5971 N   0  0  0  0  0  0  0  0  0  0  0  0
    0.1153    1.0578   -0.7663 C   0  0  0  0  0  0  0  0  0  0  0  0
    0.3790    2.3728   -0.3698 C   0  0  0  0  0  0  0  0  0  0  0  0
   -0.5850    3.3735   -0.5207 C   0  0  0  0  0  0  0  0  0  0  0  0
   -1.8245    3.0702   -1.0735 C   0  0  0  0  0  0  0  0  0  0  0  0
   -2.0921    1.7701   -1.4954 C   0  0  0  0  0  0  0  0  0  0  0  0
   -1.1230    0.7694   -1.3509 C   0  0  0  0  0  0  0  0  0  0  0  0
    2.9086   -1.2583    0.1561 C   0  0  0  0  0  0  0  0  0  0  0  0
    4.0422   -1.4754    0.9149 C   0  0  0  0  0  0  0  0  0  0  0  0
    4.6310   -3.0537    0.6670 S   0  0  0  0  0  0  0  0  0  0  0  0
    3.3571   -3.3568   -0.4590 C   0  0  0  0  0  0  0  0  0  0  0  0
    3.2514   -4.6620   -1.1392 C   0  0  0  0  0  0  0  0  0  0  0  0
    1.9925   -5.1095   -1.5717 C   0  0  0  0  0  0  0  0  0  0  0  0
    1.8506   -6.3405   -2.2192 C   0  0  0  0  0  0  0  0  0  0  0  0
    2.9669   -7.1405   -2.4519 C   0  0  0  0  0  0  0  0  0  0  0  0
    4.2250   -6.7104   -2.0411 C   0  0  0  0  0  0  0  0  0  0  0  0
    4.3660   -5.4803   -1.3917 C   0  0  0  0  0  0  0  0  0  0  0  0
    2.5019   -2.3569   -0.6084 N   0  0  0  0  0  0  0  0  0  0  0  0
    0.8039   -0.9061   -0.9979 H   0  0  0  0  0  0  0  0  0  0  0  0
    1.3351    2.6615    0.0540 H   0  0  0  0  0  0  0  0  0  0  0  0
   -0.3604    4.3878   -0.1999 H   0  0  0  0  0  0  0  0  0  0  0  0
   -2.5780    3.8470   -1.1755 H   0  0  0  0  0  0  0  0  0  0  0  0
   -3.0605    1.5316   -1.9286 H   0  0  0  0  0  0  0  0  0  0  0  0
   -1.3619   -0.2380   -1.6815 H   0  0  0  0  0  0  0  0  0  0  0  0
    4.5307   -0.7830    1.5872 H   0  0  0  0  0  0  0  0  0  0  0  0
    1.1093   -4.4992   -1.3981 H   0  0  0  0  0  0  0  0  0  0  0  0
    0.8670   -6.6728   -2.5410 H   0  0  0  0  0  0  0  0  0  0  0  0
    2.8562   -8.0968   -2.9569 H   0  0  0  0  0  0  0  0  0  0  0  0
    5.0995   -7.3296   -2.2272 H   0  0  0  0  0  0  0  0  0  0  0  0
    5.3681   -5.1731   -1.0988 H   0  0  0  0  0  0  0  0  0  0  0  0
  1  2  2  0  0  0  0
  2  3  1  0  0  0  0
  2 10  1  0  0  0  0
  3  4  1  0  0  0  0
  3 21  1  0  0  0  0
  4  5  1  0  0  0  0
  4  9  2  0  0  0  0
  5  6  2  0  0  0  0
  5 22  1  0  0  0  0
  6  7  1  0  0  0  0
  6 23  1  0  0  0  0
  7  8  2  0  0  0  0
  7 24  1  0  0  0  0
  8  9  1  0  0  0  0
  8 25  1  0  0  0  0
  9 26  1  0  0  0  0
 10 11  2  0  0  0  0
 10 20  1  0  0  0  0
 11 12  1  0  0  0  0
 11 27  1  0  0  0  0
 12 13  1  0  0  0  0
 13 14  1  0  0  0  0
 13 20  2  0  0  0  0
 14 15  1  0  0  0  0
 14 19  2  0  0  0  0
 15 16  2  0  0  0  0
 15 28  1  0  0  0  0
 16 17  1  0  0  0  0
 16 29  1  0  0  0  0
 17 18  2  0  0  0  0
 17 30  1  0  0  0  0
 18 19  1  0  0  0  0
 18 31  1  0  0  0  0
 19 32  1  0  0  0  0
M  END
>  <Energy>
54.0828

$$$$

 OpenBabel04232614443D

 39 40  0  0  0  0  0  0  0  0999 V2000
    1.1958   -0.6824   -0.0530 C   0  0  0  0  0  0  0  0  0  0  0  0
    2.6797   -0.4749   -0.0462 C   0  0  0  0  0  0  0  0  0  0  0  0
    3.1142    0.8092   -0.0440 N   0  0  0  0  0  0  0  0  0  0  0  0
    4.4612    1.0140   -0.0375 C   0  0  0  0  0  0  0  0  0  0  0  0
    4.8925    2.4490   -0.0341 C   0  0  0  0  0  0  0  0  0  0  0  0
    5.3652   -0.0536   -0.0339 C   0  0  0  0  0  0  0  0  0  0  0  0
    6.8322    0.1043   -0.0259 C   0  0  0  0  0  0  0  0  0  0  0  0
    7.6668   -0.9487   -0.0152 C   0  0  0  0  0  0  0  0  0  0  0  0
    9.1448   -0.7845   -0.0071 C   0  0  0  0  0  0  0  0  0  0  0  0
    9.6934    0.3073   -0.0179 O   0  0  0  0  0  0  0  0  0  0  0  0
    9.8876   -2.0771    0.0145 C   0  0  0  0  0  0  0  0  0  0  0  0
   11.2287   -2.1192   -0.0013 C   0  0  0  0  0  0  0  0  0  0  0  0
   12.0066   -3.3714    0.0261 C   0  0  0  0  0  0  0  0  0  0  0  0
   11.5402   -4.5632   -0.5492 C   0  0  0  0  0  0  0  0  0  0  0  0
   12.3118   -5.7288   -0.5115 C   0  0  0  0  0  0  0  0  0  0  0  0
   13.5681   -5.7151    0.0878 C   0  0  0  0  0  0  0  0  0  0  0  0
   14.0555   -4.5343    0.6433 C   0  0  0  0  0  0  0  0  0  0  0  0
   13.2820   -3.3694    0.6082 C   0  0  0  0  0  0  0  0  0  0  0  0
    4.9194   -1.3387   -0.0369 N   0  0  0  0  0  0  0  0  0  0  0  0
    3.5772   -1.5413   -0.0427 C   0  0  0  0  0  0  0  0  0  0  0  0
    3.1190   -2.9678   -0.0447 C   0  0  0  0  0  0  0  0  0  0  0  0
    0.6687    0.2774   -0.0536 H   0  0  0  0  0  0  0  0  0  0  0  0
    0.8824   -1.2357    0.8377 H   0  0  0  0  0  0  0  0  0  0  0  0
    0.8904   -1.2326   -0.9483 H   0  0  0  0  0  0  0  0  0  0  0  0
    4.0212    3.1130   -0.0359 H   0  0  0  0  0  0  0  0  0  0  0  0
    5.4831    2.6752   -0.9268 H   0  0  0  0  0  0  0  0  0  0  0  0
    5.4771    2.6727    0.8633 H   0  0  0  0  0  0  0  0  0  0  0  0
    7.2341    1.1129   -0.0274 H   0  0  0  0  0  0  0  0  0  0  0  0
    7.2814   -1.9621   -0.0129 H   0  0  0  0  0  0  0  0  0  0  0  0
    9.2951   -2.9831    0.0547 H   0  0  0  0  0  0  0  0  0  0  0  0
   11.8037   -1.1945   -0.0129 H   0  0  0  0  0  0  0  0  0  0  0  0
   10.5741   -4.6037   -1.0451 H   0  0  0  0  0  0  0  0  0  0  0  0
   11.9319   -6.6453   -0.9559 H   0  0  0  0  0  0  0  0  0  0  0  0
   14.1685   -6.6208    0.1160 H   0  0  0  0  0  0  0  0  0  0  0  0
   15.0397   -4.5189    1.1048 H   0  0  0  0  0  0  0  0  0  0  0  0
   13.6850   -2.4605    1.0502 H   0  0  0  0  0  0  0  0  0  0  0  0
    3.9754   -3.6503   -0.0397 H   0  0  0  0  0  0  0  0  0  0  0  0
    2.5283   -3.1788   -0.9414 H   0  0  0  0  0  0  0  0  0  0  0  0
    2.5184   -3.1784    0.8454 H   0  0  0  0  0  0  0  0  0  0  0  0
  1  2  1  0  0  0  0
  1 22  1  0  0  0  0
  1 23  1  0  0  0  0
  1 24  1  0  0  0  0
  2  3  1  0  0  0  0
  2 20  2  0  0  0  0
  3  4  2  0  0  0  0
  4  5  1  0  0  0  0
  4  6  1  0  0  0  0
  5 25  1  0  0  0  0
  5 26  1  0  0  0  0
  5 27  1  0  0  0  0
  6  7  1  0  0  0  0
  6 19  2  0  0  0  0
  7  8  2  0  0  0  0
  7 28  1  0  0  0  0
  8  9  1  0  0  0  0
  8 29  1  0  0  0  0
  9 10  2  0  0  0  0
  9 11  1  0  0  0  0
 11 12  2  0  0  0  0
 11 30  1  0  0  0  0
 12 13  1  0  0  0  0
 12 31  1  0  0  0  0
 13 14  1  0  0  0  0
 13 18  2  0  0  0  0
 14 15  2  0  0  0  0
 14 32  1  0  0  0  0
 15 16  1  0  0  0  0
 15 33  1  0  0  0  0
 16 17  2  0  0  0  0
 16 34  1  0  0  0  0
 17 18  1  0  0  0  0
 17 35  1  0  0  0  0
 18 36  1  0  0  0  0
 19 20  1  0  0  0  0
 20 21  1  0  0  0  0
 21 37  1  0  0  0  0
 21 38  1  0  0  0  0
 21 39  1  0  0  0  0
M  END
>  <Energy>
86.7696

$$$$

 OpenBabel04232614443D

 37 39  0  0  0  0  0  0  0  0999 V2000
    3.6378   -0.6096   -0.0142 C   0  0  0  0  0  0  0  0  0  0  0  0
    2.2235   -0.1133    0.0056 C   0  0  0  0  0  0  0  0  0  0  0  0
    1.9213    1.2491   -0.0166 C   0  0  0  0  0  0  0  0  0  0  0  0
    0.5853    1.6765   -0.0244 C   0  0  0  0  0  0  0  0  0  0  0  0
   -0.4741    0.7782   -0.0106 C   0  0  0  0  0  0  0  0  0  0  0  0
   -1.7487    1.2181   -0.0210 N   0  0  0  0  0  0  0  0  0  0  0  0
   -2.7435    0.2923   -0.0112 C   0  0  0  0  0  0  0  0  0  0  0  0
   -2.5269   -1.0766    0.0037 C   0  0  0  0  0  0  0  0  0  0  0  0
   -3.6620   -2.0027    0.0922 C   0  0  0  0  0  0  0  0  0  0  0  0
   -3.6732   -3.2080   -0.4395 N   0  3  0  0  0  0  0  0  0  0  0  0
   -2.7248   -3.6195   -1.1909 O   0  5  0  0  0  0  0  0  0  0  0  0
   -4.8056   -4.1462   -0.2008 C   0  0  0  0  0  0  0  0  0  0  0  0
   -4.5830   -5.0022    1.0239 C   0  0  0  0  0  0  0  0  0  0  0  0
   -5.4775   -4.9596    2.1009 C   0  0  0  0  0  0  0  0  0  0  0  0
   -5.2557   -5.7426    3.2365 C   0  0  0  0  0  0  0  0  0  0  0  0
   -4.1421   -6.5782    3.3063 C   0  0  0  0  0  0  0  0  0  0  0  0
   -3.2536   -6.6408    2.2361 C   0  0  0  0  0  0  0  0  0  0  0  0
   -3.4747   -5.8617    1.0996 C   0  0  0  0  0  0  0  0  0  0  0  0
   -1.2103   -1.5187    0.0409 C   0  0  0  0  0  0  0  0  0  0  0  0
   -0.1613   -0.5966    0.0199 C   0  0  0  0  0  0  0  0  0  0  0  0
    1.1726   -1.0311    0.0295 C   0  0  0  0  0  0  0  0  0  0  0  0
    4.3563    0.2153   -0.0030 H   0  0  0  0  0  0  0  0  0  0  0  0
    3.8128   -1.1993   -0.9205 H   0  0  0  0  0  0  0  0  0  0  0  0
    3.8296   -1.2375    0.8623 H   0  0  0  0  0  0  0  0  0  0  0  0
    2.7156    1.9914   -0.0330 H   0  0  0  0  0  0  0  0  0  0  0  0
    0.3677    2.7418   -0.0442 H   0  0  0  0  0  0  0  0  0  0  0  0
   -3.7463    0.7096   -0.0202 H   0  0  0  0  0  0  0  0  0  0  0  0
   -4.5649   -1.6907    0.6403 H   0  0  0  0  0  0  0  0  0  0  0  0
   -4.9039   -4.7836   -1.0876 H   0  0  0  0  0  0  0  0  0  0  0  0
   -5.7238   -3.5536   -0.1217 H   0  0  0  0  0  0  0  0  0  0  0  0
   -6.3554   -4.3186    2.0683 H   0  0  0  0  0  0  0  0  0  0  0  0
   -5.9529   -5.7018    4.0695 H   0  0  0  0  0  0  0  0  0  0  0  0
   -3.9686   -7.1829    4.1928 H   0  0  0  0  0  0  0  0  0  0  0  0
   -2.3871   -7.2958    2.2851 H   0  0  0  0  0  0  0  0  0  0  0  0
   -2.7691   -5.9259    0.2717 H   0  0  0  0  0  0  0  0  0  0  0  0
   -0.9867   -2.5814    0.0970 H   0  0  0  0  0  0  0  0  0  0  0  0
    1.3934   -2.0975    0.0453 H   0  0  0  0  0  0  0  0  0  0  0  0
  1  2  1  0  0  0  0
  1 22  1  0  0  0  0
  1 23  1  0  0  0  0
  1 24  1  0  0  0  0
  2  3  1  0  0  0  0
  2 21  2  0  0  0  0
  3  4  2  0  0  0  0
  3 25  1  0  0  0  0
  4  5  1  0  0  0  0
  4 26  1  0  0  0  0
  5  6  1  0  0  0  0
  5 20  2  0  0  0  0
  6  7  2  0  0  0  0
  7  8  1  0  0  0  0
  7 27  1  0  0  0  0
  8  9  1  0  0  0  0
  8 19  2  0  0  0  0
  9 10  2  0  0  0  0
  9 28  1  0  0  0  0
 10 11  1  0  0  0  0
 10 12  1  0  0  0  0
 12 13  1  0  0  0  0
 12 29  1  0  0  0  0
 12 30  1  0  0  0  0
 13 14  1  0  0  0  0
 13 18  2  0  0  0  0
 14 15  2  0  0  0  0
 14 31  1  0  0  0  0
 15 16  1  0  0  0  0
 15 32  1  0  0  0  0
 16 17  2  0  0  0  0
 16 33  1  0  0  0  0
 17 18  1  0  0  0  0
 17 34  1  0  0  0  0
 18 35  1  0  0  0  0
 19 20  1  0  0  0  0
 19 36  1  0  0  0  0
 20 21  1  0  0  0  0
 21 37  1  0  0  0  0
M  CHG  2  10   1  11  -1
M  END
>  <Energy>
83.2057

$$$$

 OpenBabel04232614443D

 39 40  0  0  1  0  0  0  0  0999 V2000
    2.1659    1.5872   -0.4714 C   0  0  0  0  0  0  0  0  0  0  0  0
    2.1380    0.1211   -0.0381 C   0  0  0  0  0  0  0  0  0  0  0  0
    2.8828   -0.2111    1.2949 C   0  0  0  0  0  0  0  0  0  0  0  0
    2.1293    0.5251    2.4573 C   0  0  0  0  0  0  0  0  0  0  0  0
    2.6153    0.2513    3.8794 C   0  0  0  0  0  0  0  0  0  0  0  0
    4.3250    0.3122    1.1922 C   0  0  0  0  0  0  0  0  0  0  0  0
    4.6123    1.4308    1.6305 O   0  0  0  0  0  0  0  0  0  0  0  0
    5.3682   -0.5128    0.4409 C   0  0  0  0  0  0  0  0  0  0  0  0
    5.2892   -0.2662   -1.0734 C   0  0  0  0  0  0  0  0  0  0  0  0
    6.7705   -0.0859    0.9143 C   0  0  0  0  0  0  0  0  0  0  0  0
    5.1815   -1.9940    0.6620 C   0  0  0  0  0  0  0  0  0  0  0  0
    6.1004   -2.8085    0.6671 O   0  0  0  0  0  0  0  0  0  0  0  0
    3.8906   -2.3938    0.6426 O   0  0  0  0  0  0  0  0  0  0  0  0
    2.9885   -1.7385    1.5522 C   0  0  3  0  0  0  0  0  0  0  0  0
    1.6666   -2.4732    1.3739 C   0  0  0  0  0  0  0  0  0  0  0  0
    1.1664   -3.0810    0.2327 C   0  0  0  0  0  0  0  0  0  0  0  0
   -0.1611   -3.5647    0.4025 C   0  0  0  0  0  0  0  0  0  0  0  0
   -0.6207   -3.3590    1.6822 C   0  0  0  0  0  0  0  0  0  0  0  0
    0.5652   -2.6430    2.6801 S   0  0  0  0  0  0  0  0  0  0  0  0
    1.5789    1.7111   -1.3874 H   0  0  0  0  0  0  0  0  0  0  0  0
    3.1809    1.9313   -0.6851 H   0  0  0  0  0  0  0  0  0  0  0  0
    1.7303    2.2455    0.2835 H   0  0  0  0  0  0  0  0  0  0  0  0
    2.5253   -0.4853   -0.8598 H   0  0  0  0  0  0  0  0  0  0  0  0
    1.0809   -0.1555    0.0586 H   0  0  0  0  0  0  0  0  0  0  0  0
    1.0604    0.2902    2.4124 H   0  0  0  0  0  0  0  0  0  0  0  0
    2.1931    1.6106    2.3145 H   0  0  0  0  0  0  0  0  0  0  0  0
    2.4978   -0.7935    4.1714 H   0  0  0  0  0  0  0  0  0  0  0  0
    2.0266    0.8462    4.5842 H   0  0  0  0  0  0  0  0  0  0  0  0
    3.6670    0.5306    4.0064 H   0  0  0  0  0  0  0  0  0  0  0  0
    5.1546    0.7954   -1.3068 H   0  0  0  0  0  0  0  0  0  0  0  0
    4.4704   -0.8221   -1.5427 H   0  0  0  0  0  0  0  0  0  0  0  0
    6.2013   -0.6067   -1.5793 H   0  0  0  0  0  0  0  0  0  0  0  0
    6.9534    0.9762    0.7109 H   0  0  0  0  0  0  0  0  0  0  0  0
    7.5608   -0.6506    0.4025 H   0  0  0  0  0  0  0  0  0  0  0  0
    6.8959   -0.2460    1.9912 H   0  0  0  0  0  0  0  0  0  0  0  0
    3.3820   -1.9483    2.5541 H   0  0  0  0  0  0  0  0  0  0  0  0
    1.7171   -3.1402   -0.6996 H   0  0  0  0  0  0  0  0  0  0  0  0
   -0.7501   -4.0323   -0.3767 H   0  0  0  0  0  0  0  0  0  0  0  0
   -1.5919   -3.6125    2.0851 H   0  0  0  0  0  0  0  0  0  0  0  0
  1  2  1  0  0  0  0
  1 20  1  0  0  0  0
  1 21  1  0  0  0  0
  1 22  1  0  0  0  0
  2  3  1  0  0  0  0
  2 23  1  0  0  0  0
  2 24  1  0  0  0  0
  3  4  1  0  0  0  0
  3  6  1  0  0  0  0
  3 14  1  0  0  0  0
  4  5  1  0  0  0  0
  4 25  1  0  0  0  0
  4 26  1  0  0  0  0
  5 27  1  0  0  0  0
  5 28  1  0  0  0  0
  5 29  1  0  0  0  0
  6  7  2  0  0  0  0
  6  8  1  0  0  0  0
  8  9  1  0  0  0  0
  8 10  1  0  0  0  0
  8 11  1  0  0  0  0
  9 30  1  0  0  0  0
  9 31  1  0  0  0  0
  9 32  1  0  0  0  0
 10 33  1  0  0  0  0
 10 34  1  0  0  0  0
 10 35  1  0  0  0  0
 11 12  2  0  0  0  0
 11 13  1  0  0  0  0
 13 14  1  0  0  0  0
 14 15  1  0  0  0  0
 14 36  1  0  0  0  0
 15 16  2  0  0  0  0
 15 19  1  0  0  0  0
 16 17  1  0  0  0  0
 16 37  1  0  0  0  0
 17 18  2  0  0  0  0
 17 38  1  0  0  0  0
 18 19  1  0  0  0  0
 18 39  1  0  0  0  0
M  END
>  <Energy>
8.31653

$$$$

 OpenBabel04232614443D

 40 41  0  0  1  0  0  0  0  0999 V2000
    9.7815   -1.4763    3.7054 C   0  0  0  0  0  0  0  0  0  0  0  0
    9.0655   -0.1477    3.5333 C   0  0  0  0  0  0  0  0  0  0  0  0
    8.5483    0.0435    2.1060 C   0  0  0  0  0  0  0  0  0  0  0  0
    7.8507    1.3977    1.9669 C   0  0  0  0  0  0  0  0  0  0  0  0
    7.3405    1.6458    0.5453 C   0  0  0  0  0  0  0  0  0  0  0  0
    6.5918    2.9809    0.4044 C   0  0  0  0  0  0  0  0  0  0  0  0
    7.4670    4.2076    0.6917 C   0  0  3  0  0  0  0  0  0  0  0  0
    6.7429    5.5276    0.5057 C   0  0  0  0  0  0  0  0  0  0  0  0
    7.1948    5.9768   -0.7773 N   0  0  0  0  0  0  0  0  0  0  0  0
    6.8170    7.2379   -1.3185 C   0  0  0  0  0  0  0  0  0  0  0  0
    7.7549    8.0006   -2.0318 C   0  0  0  0  0  0  0  0  0  0  0  0
    7.4381    9.2646   -2.5361 C   0  0  0  0  0  0  0  0  0  0  0  0
    6.1634    9.7871   -2.3566 C   0  0  0  0  0  0  0  0  0  0  0  0
    5.2067    9.0474   -1.6660 C   0  0  0  0  0  0  0  0  0  0  0  0
    5.5325    7.7880   -1.1463 C   0  0  0  0  0  0  0  0  0  0  0  0
    4.5448    7.0815   -0.5086 O   0  0  0  0  0  0  0  0  0  0  0  0
    8.2876    5.2211   -1.1754 C   0  0  0  0  0  0  0  0  0  0  0  0
    8.9661    5.3371   -2.1824 O   0  0  0  0  0  0  0  0  0  0  0  0
    8.5462    4.2480   -0.2446 O   0  0  0  0  0  0  0  0  0  0  0  0
   10.1350   -1.5831    4.7361 H   0  0  0  0  0  0  0  0  0  0  0  0
   10.6490   -1.5438    3.0410 H   0  0  0  0  0  0  0  0  0  0  0  0
    9.1126   -2.3145    3.4870 H   0  0  0  0  0  0  0  0  0  0  0  0
    9.7555    0.6650    3.7900 H   0  0  0  0  0  0  0  0  0  0  0  0
    8.2293   -0.0960    4.2405 H   0  0  0  0  0  0  0  0  0  0  0  0
    7.8504   -0.7631    1.8516 H   0  0  0  0  0  0  0  0  0  0  0  0
    9.3849   -0.0147    1.3998 H   0  0  0  0  0  0  0  0  0  0  0  0
    8.5622    2.1802    2.2512 H   0  0  0  0  0  0  0  0  0  0  0  0
    7.0104    1.4515    2.6696 H   0  0  0  0  0  0  0  0  0  0  0  0
    6.6578    0.8357    0.2610 H   0  0  0  0  0  0  0  0  0  0  0  0
    8.1784    1.6124   -0.1615 H   0  0  0  0  0  0  0  0  0  0  0  0
    5.7217    2.9818    1.0720 H   0  0  0  0  0  0  0  0  0  0  0  0
    6.2099    3.0382   -0.6233 H   0  0  0  0  0  0  0  0  0  0  0  0
    7.8748    4.1602    1.7062 H   0  0  0  0  0  0  0  0  0  0  0  0
    7.0899    6.2518    1.2530 H   0  0  0  0  0  0  0  0  0  0  0  0
    5.6623    5.4116    0.5905 H   0  0  0  0  0  0  0  0  0  0  0  0
    8.7746    7.6502   -2.1744 H   0  0  0  0  0  0  0  0  0  0  0  0
    8.1974    9.8376   -3.0628 H   0  0  0  0  0  0  0  0  0  0  0  0
    5.9175   10.7675   -2.7549 H   0  0  0  0  0  0  0  0  0  0  0  0
    4.2126    9.4669   -1.5447 H   0  0  0  0  0  0  0  0  0  0  0  0
    3.6969    7.5331   -0.6535 H   0  0  0  0  0  0  0  0  0  0  0  0
  1  2  1  0  0  0  0
  1 20  1  0  0  0  0
  1 21  1  0  0  0  0
  1 22  1  0  0  0  0
  2  3  1  0  0  0  0
  2 23  1  0  0  0  0
  2 24  1  0  0  0  0
  3  4  1  0  0  0  0
  3 25  1  0  0  0  0
  3 26  1  0  0  0  0
  4  5  1  0  0  0  0
  4 27  1  0  0  0  0
  4 28  1  0  0  0  0
  5  6  1  0  0  0  0
  5 29  1  0  0  0  0
  5 30  1  0  0  0  0
  6  7  1  0  0  0  0
  6 31  1  0  0  0  0
  6 32  1  0  0  0  0
  7  8  1  0  0  0  0
  7 19  1  0  0  0  0
  7 33  1  0  0  0  0
  8  9  1  0  0  0  0
  8 34  1  0  0  0  0
  8 35  1  0  0  0  0
  9 10  1  0  0  0  0
  9 17  1  0  0  0  0
 10 11  1  0  0  0  0
 10 15  2  0  0  0  0
 11 12  2  0  0  0  0
 11 36  1  0  0  0  0
 12 13  1  0  0  0  0
 12 37  1  0  0  0  0
 13 14  2  0  0  0  0
 13 38  1  0  0  0  0
 14 15  1  0  0  0  0
 14 39  1  0  0  0  0
 15 16  1  0  0  0  0
 16 40  1  0  0  0  0
 17 18  2  0  0  0  0
 17 19  1  0  0  0  0
M  END
>  <Energy>
9.63072

$$$$

 OpenBabel04232614443D

 38 39  0  0  0  0  0  0  0  0999 V2000
    0.4962   -0.5514   -1.8448 C   0  0  0  0  0  0  0  0  0  0  0  0
    1.8968   -0.7818   -1.7693 O   0  0  0  0  0  0  0  0  0  0  0  0
    2.7144    0.3048   -1.9346 C   0  0  0  0  0  0  0  0  0  0  0  0
    2.3006    1.5977   -2.2556 C   0  0  0  0  0  0  0  0  0  0  0  0
    3.2379    2.6357   -2.3740 C   0  0  0  0  0  0  0  0  0  0  0  0
    2.8396    4.0177   -2.6787 C   0  0  0  0  0  0  0  0  0  0  0  0
    1.7313    4.5889   -2.1825 C   0  0  0  0  0  0  0  0  0  0  0  0
    1.4268    6.0046   -2.4054 C   0  0  0  0  0  0  0  0  0  0  0  0
    1.7645    6.8700   -1.3490 C   0  0  0  0  0  0  0  0  0  0  0  0
    1.5834    8.2484   -1.4602 C   0  0  0  0  0  0  0  0  0  0  0  0
    1.0644    8.7824   -2.6338 C   0  0  0  0  0  0  0  0  0  0  0  0
    0.7247    7.9348   -3.6901 C   0  0  0  0  0  0  0  0  0  0  0  0
    0.8856    6.5470   -3.5828 C   0  0  0  0  0  0  0  0  0  0  0  0
    0.5390    5.8643   -4.7188 O   0  0  0  0  0  0  0  0  0  0  0  0
   -0.1546    4.6374   -4.5271 C   0  0  0  0  0  0  0  0  0  0  0  0
    4.6014    2.3526   -2.2115 C   0  0  0  0  0  0  0  0  0  0  0  0
    5.0246    1.0616   -1.8927 C   0  0  0  0  0  0  0  0  0  0  0  0
    6.3177    0.6676   -1.6822 O   0  0  0  0  0  0  0  0  0  0  0  0
    7.3199    1.6735   -1.7638 C   0  0  0  0  0  0  0  0  0  0  0  0
    4.0738    0.0473   -1.7566 C   0  0  0  0  0  0  0  0  0  0  0  0
   -0.0104   -1.4979   -1.6329 H   0  0  0  0  0  0  0  0  0  0  0  0
    0.2045   -0.2348   -2.8516 H   0  0  0  0  0  0  0  0  0  0  0  0
    0.1710    0.1746   -1.0921 H   0  0  0  0  0  0  0  0  0  0  0  0
    1.2526    1.8188   -2.4172 H   0  0  0  0  0  0  0  0  0  0  0  0
    3.5271    4.5969   -3.2923 H   0  0  0  0  0  0  0  0  0  0  0  0
    1.0466    4.0612   -1.5245 H   0  0  0  0  0  0  0  0  0  0  0  0
    2.1942    6.4713   -0.4315 H   0  0  0  0  0  0  0  0  0  0  0  0
    1.8594    8.9022   -0.6374 H   0  0  0  0  0  0  0  0  0  0  0  0
    0.9297    9.8565   -2.7333 H   0  0  0  0  0  0  0  0  0  0  0  0
    0.3256    8.3591   -4.6086 H   0  0  0  0  0  0  0  0  0  0  0  0
   -0.8321    4.5034   -5.3766 H   0  0  0  0  0  0  0  0  0  0  0  0
   -0.7639    4.6267   -3.6168 H   0  0  0  0  0  0  0  0  0  0  0  0
    0.5501    3.8016   -4.5415 H   0  0  0  0  0  0  0  0  0  0  0  0
    5.3170    3.1620   -2.3202 H   0  0  0  0  0  0  0  0  0  0  0  0
    8.2799    1.2099   -1.5171 H   0  0  0  0  0  0  0  0  0  0  0  0
    7.1427    2.4734   -1.0367 H   0  0  0  0  0  0  0  0  0  0  0  0
    7.3923    2.0721   -2.7811 H   0  0  0  0  0  0  0  0  0  0  0  0
    4.3999   -0.9594   -1.5044 H   0  0  0  0  0  0  0  0  0  0  0  0
  1  2  1  0  0  0  0
  1 21  1  0  0  0  0
  1 22  1  0  0  0  0
  1 23  1  0  0  0  0
  2  3  1  0  0  0  0
  3  4  1  0  0  0  0
  3 20  2  0  0  0  0
  4  5  2  0  0  0  0
  4 24  1  0  0  0  0
  5  6  1  0  0  0  0
  5 16  1  0  0  0  0
  6  7  2  0  0  0  0
  6 25  1  0  0  0  0
  7  8  1  0  0  0  0
  7 26  1  0  0  0  0
  8  9  1  0  0  0  0
  8 13  2  0  0  0  0
  9 10  2  0  0  0  0
  9 27  1  0  0  0  0
 10 11  1  0  0  0  0
 10 28  1  0  0  0  0
 11 12  2  0  0  0  0
 11 29  1  0  0  0  0
 12 13  1  0  0  0  0
 12 30  1  0  0  0  0
 13 14  1  0  0  0  0
 14 15  1  0  0  0  0
 15 31  1  0  0  0  0
 15 32  1  0  0  0  0
 15 33  1  0  0  0  0
 16 17  2  0  0  0  0
 16 34  1  0  0  0  0
 17 18  1  0  0  0  0
 17 20  1  0  0  0  0
 18 19  1  0  0  0  0
 19 35  1  0  0  0  0
 19 36  1  0  0  0  0
 19 37  1  0  0  0  0
 20 38  1  0  0  0  0
M  END
>  <Energy>
62.429

$$$$

 OpenBabel04232614443D

 36 37  0  0  0  0  0  0  0  0999 V2000
    1.2633    0.8911   -0.3843 C   0  0  0  0  0  0  0  0  0  0  0  0
    2.4667    0.1994   -0.0729 O   0  0  0  0  0  0  0  0  0  0  0  0
    3.0845    0.5365    1.1007 C   0  0  0  0  0  0  0  0  0  0  0  0
    2.6705    1.5331    1.9845 C   0  0  0  0  0  0  0  0  0  0  0  0
    3.3966    1.7828    3.1546 C   0  0  0  0  0  0  0  0  0  0  0  0
    4.5406    1.0378    3.4556 C   0  0  0  0  0  0  0  0  0  0  0  0
    5.2864    1.3156    4.6878 C   0  0  0  0  0  0  0  0  0  0  0  0
    5.0736    0.7267    5.8772 C   0  0  0  0  0  0  0  0  0  0  0  0
    4.0824   -0.3252    6.1113 C   0  0  0  0  0  0  0  0  0  0  0  0
    4.4730   -1.6658    6.0293 C   0  0  0  0  0  0  0  0  0  0  0  0
    3.5247   -2.6884    6.1189 C   0  0  0  0  0  0  0  0  0  0  0  0
    2.1825   -2.3645    6.2892 C   0  0  0  0  0  0  0  0  0  0  0  0
    1.1212   -3.3031    6.2740 O   0  0  0  0  0  0  0  0  0  0  0  0
    1.2325   -4.6621    5.9703 C   0  0  0  0  0  0  0  0  0  0  0  0
   -0.1416   -5.2537    5.8609 C   0  0  0  0  0  0  0  0  0  0  0  0
    2.2601   -5.2944    5.7617 O   0  0  0  0  0  0  0  0  0  0  0  0
    1.7902   -1.0313    6.4385 C   0  0  0  0  0  0  0  0  0  0  0  0
    2.7410   -0.0114    6.3502 C   0  0  0  0  0  0  0  0  0  0  0  0
    4.9557    0.0392    2.5714 C   0  0  0  0  0  0  0  0  0  0  0  0
    4.2306   -0.2057    1.3997 C   0  0  0  0  0  0  0  0  0  0  0  0
    0.8884    0.5030   -1.3363 H   0  0  0  0  0  0  0  0  0  0  0  0
    1.4450    1.9635   -0.5125 H   0  0  0  0  0  0  0  0  0  0  0  0
    0.4954    0.7083    0.3749 H   0  0  0  0  0  0  0  0  0  0  0  0
    1.7894    2.1363    1.7958 H   0  0  0  0  0  0  0  0  0  0  0  0
    3.0595    2.5624    3.8327 H   0  0  0  0  0  0  0  0  0  0  0  0
    6.0603    2.0732    4.5924 H   0  0  0  0  0  0  0  0  0  0  0  0
    5.6789    1.0032    6.7364 H   0  0  0  0  0  0  0  0  0  0  0  0
    5.5157   -1.9235    5.8587 H   0  0  0  0  0  0  0  0  0  0  0  0
    3.8667   -3.7124    6.0230 H   0  0  0  0  0  0  0  0  0  0  0  0
   -0.8322   -4.7577    6.5480 H   0  0  0  0  0  0  0  0  0  0  0  0
   -0.1006   -6.3122    6.1340 H   0  0  0  0  0  0  0  0  0  0  0  0
   -0.4995   -5.1512    4.8330 H   0  0  0  0  0  0  0  0  0  0  0  0
    0.7439   -0.7814    6.5889 H   0  0  0  0  0  0  0  0  0  0  0  0
    2.4254    1.0254    6.4332 H   0  0  0  0  0  0  0  0  0  0  0  0
    5.8398   -0.5562    2.7853 H   0  0  0  0  0  0  0  0  0  0  0  0
    4.5609   -0.9837    0.7156 H   0  0  0  0  0  0  0  0  0  0  0  0
  1  2  1  0  0  0  0
  1 21  1  0  0  0  0
  1 22  1  0  0  0  0
  1 23  1  0  0  0  0
  2  3  1  0  0  0  0
  3  4  1  0  0  0  0
  3 20  2  0  0  0  0
  4  5  2  0  0  0  0
  4 24  1  0  0  0  0
  5  6  1  0  0  0  0
  5 25  1  0  0  0  0
  6  7  1  0  0  0  0
  6 19  2  0  0  0  0
  7  8  2  0  0  0  0
  7 26  1  0  0  0  0
  8  9  1  0  0  0  0
  8 27  1  0  0  0  0
  9 10  1  0  0  0  0
  9 18  2  0  0  0  0
 10 11  2  0  0  0  0
 10 28  1  0  0  0  0
 11 12  1  0  0  0  0
 11 29  1  0  0  0  0
 12 13  1  0  0  0  0
 12 17  2  0  0  0  0
 13 14  1  0  0  0  0
 14 15  1  0  0  0  0
 14 16  2  0  0  0  0
 15 30  1  0  0  0  0
 15 31  1  0  0  0  0
 15 32  1  0  0  0  0
 17 18  1  0  0  0  0
 17 33  1  0  0  0  0
 18 34  1  0  0  0  0
 19 20  1  0  0  0  0
 19 35  1  0  0  0  0
 20 36  1  0  0  0  0
M  END
>  <Energy>
55.4687

$$$$

 OpenBabel04232614443D

 36 39  0  0  0  0  0  0  0  0999 V2000
    1.2389   -0.1903   -0.2264 C   0  0  0  0  0  0  0  0  0  0  0  0
    2.5882    0.1618    0.0635 O   0  0  0  0  0  0  0  0  0  0  0  0
    3.1294   -0.4472    1.1589 C   0  0  0  0  0  0  0  0  0  0  0  0
    2.7399   -1.6837    1.6818 C   0  0  0  0  0  0  0  0  0  0  0  0
    3.3744   -2.2288    2.8213 C   0  0  0  0  0  0  0  0  0  0  0  0
    4.4144   -1.5549    3.4700 C   0  0  0  0  0  0  0  0  0  0  0  0
    4.8194   -0.3376    2.9537 C   0  0  0  0  0  0  0  0  0  0  0  0
    4.1768    0.1883    1.7972 C   0  0  0  0  0  0  0  0  0  0  0  0
    4.8605    1.4055    1.5421 C   0  0  0  0  0  0  0  0  0  0  0  0
    4.8957    2.3898    0.6307 N   0  0  0  0  0  0  0  0  0  0  0  0
    5.8769    3.2797    0.9094 N   0  0  0  0  0  0  0  0  0  0  0  0
    6.4641    2.8241    2.0348 C   0  0  0  0  0  0  0  0  0  0  0  0
    7.4880    3.4037    2.7051 N   0  0  0  0  0  0  0  0  0  0  0  0
    8.4195    4.3503    2.2239 C   0  0  0  0  0  0  0  0  0  0  0  0
    8.9512    5.3079    3.0990 C   0  0  0  0  0  0  0  0  0  0  0  0
    9.8088    6.3105    2.6296 C   0  0  0  0  0  0  0  0  0  0  0  0
   10.1527    6.3621    1.2801 C   0  0  0  0  0  0  0  0  0  0  0  0
    9.6374    5.4162    0.3999 C   0  0  0  0  0  0  0  0  0  0  0  0
    8.7682    4.4294    0.8689 C   0  0  0  0  0  0  0  0  0  0  0  0
    5.8465    1.6375    2.4583 C   0  0  0  0  0  0  0  0  0  0  0  0
    5.9453    0.5720    3.4927 C   0  0  0  0  0  0  0  0  0  0  0  0
    0.8912    0.4550   -1.0390 H   0  0  0  0  0  0  0  0  0  0  0  0
    0.5918   -0.0159    0.6403 H   0  0  0  0  0  0  0  0  0  0  0  0
    1.1611   -1.2252   -0.5738 H   0  0  0  0  0  0  0  0  0  0  0  0
    1.9533   -2.2697    1.2164 H   0  0  0  0  0  0  0  0  0  0  0  0
    3.0497   -3.1981    3.1948 H   0  0  0  0  0  0  0  0  0  0  0  0
    4.8921   -1.9847    4.3443 H   0  0  0  0  0  0  0  0  0  0  0  0
    4.3184    2.5265   -0.1903 H   0  0  0  0  0  0  0  0  0  0  0  0
    7.6633    3.1382    3.6629 H   0  0  0  0  0  0  0  0  0  0  0  0
    8.6743    5.3061    4.1492 H   0  0  0  0  0  0  0  0  0  0  0  0
   10.1936    7.0610    3.3145 H   0  0  0  0  0  0  0  0  0  0  0  0
   10.8103    7.1443    0.9114 H   0  0  0  0  0  0  0  0  0  0  0  0
    9.8946    5.4474   -0.6550 H   0  0  0  0  0  0  0  0  0  0  0  0
    8.3678    3.7056    0.1633 H   0  0  0  0  0  0  0  0  0  0  0  0
    5.7029    0.9408    4.4920 H   0  0  0  0  0  0  0  0  0  0  0  0
    6.9085    0.0573    3.4626 H   0  0  0  0  0  0  0  0  0  0  0  0
  1  2  1  0  0  0  0
  1 22  1  0  0  0  0
  1 23  1  0  0  0  0
  1 24  1  0  0  0  0
  2  3  1  0  0  0  0
  3  4  1  0  0  0  0
  3  8  2  0  0  0  0
  4  5  2  0  0  0  0
  4 25  1  0  0  0  0
  5  6  1  0  0  0  0
  5 26  1  0  0  0  0
  6  7  2  0  0  0  0
  6 27  1  0  0  0  0
  7  8  1  0  0  0  0
  7 21  1  0  0  0  0
  8  9  1  0  0  0  0
  9 10  1  0  0  0  0
  9 20  2  0  0  0  0
 10 11  1  0  0  0  0
 10 28  1  0  0  0  0
 11 12  2  0  0  0  0
 12 13  1  0  0  0  0
 12 20  1  0  0  0  0
 13 14  1  0  0  0  0
 13 29  1  0  0  0  0
 14 15  1  0  0  0  0
 14 19  2  0  0  0  0
 15 16  2  0  0  0  0
 15 30  1  0  0  0  0
 16 17  1  0  0  0  0
 16 31  1  0  0  0  0
 17 18  2  0  0  0  0
 17 32  1  0  0  0  0
 18 19  1  0  0  0  0
 18 33  1  0  0  0  0
 19 34  1  0  0  0  0
 20 21  1  0  0  0  0
 21 35  1  0  0  0  0
 21 36  1  0  0  0  0
M  END
>  <Energy>
47.2426

$$$$

 OpenBabel04232614443D

 36 38  0  0  0  0  0  0  0  0999 V2000
    1.0403   -0.1648    0.1379 C   0  0  0  0  0  0  0  0  0  0  0  0
    2.5422    0.0333    0.1169 C   0  0  0  0  0  0  0  0  0  0  0  0
    3.2374    0.5739    1.0753 N   0  0  0  0  0  0  0  0  0  0  0  0
    2.6399    0.9506    2.2421 N   0  0  0  0  0  0  0  0  0  0  0  0
    3.3465    1.5249    3.2575 C   0  0  0  0  0  0  0  0  0  0  0  0
    3.0025    1.4092    4.5264 N   0  0  0  0  0  0  0  0  0  0  0  0
    3.9197    2.0636    5.3262 C   0  0  0  0  0  0  0  0  0  0  0  0
    4.9291    2.7158    4.6543 C   0  0  0  0  0  0  0  0  0  0  0  0
    4.7770    2.4706    2.9824 S   0  0  0  0  0  0  0  0  0  0  0  0
    5.9935    3.5467    5.2827 C   0  0  0  0  0  0  0  0  0  0  0  0
    6.0656    3.2690    6.7949 C   0  0  0  0  0  0  0  0  0  0  0  0
    4.6704    3.1660    7.4379 C   0  0  0  0  0  0  0  0  0  0  0  0
    3.8317    2.0350    6.8147 C   0  0  0  0  0  0  0  0  0  0  0  0
    3.2878   -0.4201   -1.1124 C   0  0  0  0  0  0  0  0  0  0  0  0
    2.6331   -1.0057   -2.2040 C   0  0  0  0  0  0  0  0  0  0  0  0
    3.3624   -1.4256   -3.3236 C   0  0  0  0  0  0  0  0  0  0  0  0
    4.7453   -1.2634   -3.3605 C   0  0  0  0  0  0  0  0  0  0  0  0
    5.4061   -0.6837   -2.2804 C   0  0  0  0  0  0  0  0  0  0  0  0
    4.6809   -0.2648   -1.1617 C   0  0  0  0  0  0  0  0  0  0  0  0
    0.5703    0.1886    1.0560 H   0  0  0  0  0  0  0  0  0  0  0  0
    0.8082   -1.2281    0.0294 H   0  0  0  0  0  0  0  0  0  0  0  0
    0.5919    0.3923   -0.6911 H   0  0  0  0  0  0  0  0  0  0  0  0
    1.8604    0.3963    2.5861 H   0  0  0  0  0  0  0  0  0  0  0  0
    5.7559    4.6056    5.1223 H   0  0  0  0  0  0  0  0  0  0  0  0
    6.9711    3.3537    4.8271 H   0  0  0  0  0  0  0  0  0  0  0  0
    6.6442    4.0621    7.2821 H   0  0  0  0  0  0  0  0  0  0  0  0
    6.6060    2.3290    6.9671 H   0  0  0  0  0  0  0  0  0  0  0  0
    4.1478    4.1227    7.3091 H   0  0  0  0  0  0  0  0  0  0  0  0
    4.7694    2.9974    8.5164 H   0  0  0  0  0  0  0  0  0  0  0  0
    2.7903    2.1178    7.1431 H   0  0  0  0  0  0  0  0  0  0  0  0
    4.2129    1.0683    7.1662 H   0  0  0  0  0  0  0  0  0  0  0  0
    1.5592   -1.1535   -2.2151 H   0  0  0  0  0  0  0  0  0  0  0  0
    2.8484   -1.8793   -4.1666 H   0  0  0  0  0  0  0  0  0  0  0  0
    5.3087   -1.5895   -4.2311 H   0  0  0  0  0  0  0  0  0  0  0  0
    6.4851   -0.5575   -2.3047 H   0  0  0  0  0  0  0  0  0  0  0  0
    5.2187    0.1829   -0.3270 H   0  0  0  0  0  0  0  0  0  0  0  0
  1  2  1  0  0  0  0
  1 20  1  0  0  0  0
  1 21  1  0  0  0  0
  1 22  1  0  0  0  0
  2  3  2  0  0  0  0
  2 14  1  0  0  0  0
  3  4  1  0  0  0  0
  4  5  1  0  0  0  0
  4 23  1  0  0  0  0
  5  6  2  0  0  0  0
  5  9  1  0  0  0  0
  6  7  1  0  0  0  0
  7  8  2  0  0  0  0
  7 13  1  0  0  0  0
  8  9  1  0  0  0  0
  8 10  1  0  0  0  0
 10 11  1  0  0  0  0
 10 24  1  0  0  0  0
 10 25  1  0  0  0  0
 11 12  1  0  0  0  0
 11 26  1  0  0  0  0
 11 27  1  0  0  0  0
 12 13  1  0  0  0  0
 12 28  1  0  0  0  0
 12 29  1  0  0  0  0
 13 30  1  0  0  0  0
 13 31  1  0  0  0  0
 14 15  1  0  0  0  0
 14 19  2  0  0  0  0
 15 16  2  0  0  0  0
 15 32  1  0  0  0  0
 16 17  1  0  0  0  0
 16 33  1  0  0  0  0
 17 18  2  0  0  0  0
 17 34  1  0  0  0  0
 18 19  1  0  0  0  0
 18 35  1  0  0  0  0
 19 36  1  0  0  0  0
M  END
>  <Energy>
63.7925

$$$$

 OpenBabel04232614443D

 38 39  0  0  0  0  0  0  0  0999 V2000
    1.1277   -0.1991    0.2448 C   0  0  0  0  0  0  0  0  0  0  0  0
    2.5306   -0.1463    0.0136 O   0  0  0  0  0  0  0  0  0  0  0  0
    3.0370    1.0495   -0.4134 C   0  0  0  0  0  0  0  0  0  0  0  0
    2.3071    2.2169   -0.6244 C   0  0  0  0  0  0  0  0  0  0  0  0
    2.9469    3.3778   -1.0770 C   0  0  0  0  0  0  0  0  0  0  0  0
    4.3264    3.3938   -1.3149 C   0  0  0  0  0  0  0  0  0  0  0  0
    5.0117    4.5717   -1.8683 C   0  0  0  0  0  0  0  0  0  0  0  0
    4.6555    5.8443   -1.6216 C   0  0  0  0  0  0  0  0  0  0  0  0
    5.2882    7.0133   -2.2530 C   0  0  0  0  0  0  0  0  0  0  0  0
    4.5082    8.1453   -2.5007 C   0  0  0  0  0  0  0  0  0  0  0  0
    5.0569    9.2725   -3.1248 C   0  0  0  0  0  0  0  0  0  0  0  0
    6.4039    9.2990   -3.5040 C   0  0  0  0  0  0  0  0  0  0  0  0
    6.9823   10.3415   -4.1764 O   0  0  0  0  0  0  0  0  0  0  0  0
    6.1619   11.4457   -4.5330 C   0  0  0  0  0  0  0  0  0  0  0  0
    7.2067    8.1834   -3.2081 C   0  0  0  0  0  0  0  0  0  0  0  0
    8.5368    8.0281   -3.5113 O   0  0  0  0  0  0  0  0  0  0  0  0
    9.3435    9.1950   -3.4030 C   0  0  0  0  0  0  0  0  0  0  0  0
    6.6418    7.0523   -2.5987 C   0  0  0  0  0  0  0  0  0  0  0  0
    5.0524    2.2157   -1.1065 C   0  0  0  0  0  0  0  0  0  0  0  0
    4.4118    1.0572   -0.6546 C   0  0  0  0  0  0  0  0  0  0  0  0
    0.8841   -1.2043    0.6028 H   0  0  0  0  0  0  0  0  0  0  0  0
    0.5701   -0.0303   -0.6820 H   0  0  0  0  0  0  0  0  0  0  0  0
    0.8274    0.5112    1.0224 H   0  0  0  0  0  0  0  0  0  0  0  0
    1.2356    2.2615   -0.4634 H   0  0  0  0  0  0  0  0  0  0  0  0
    2.3424    4.2624   -1.2608 H   0  0  0  0  0  0  0  0  0  0  0  0
    5.8375    4.3478   -2.5398 H   0  0  0  0  0  0  0  0  0  0  0  0
    3.8284    6.0679   -0.9532 H   0  0  0  0  0  0  0  0  0  0  0  0
    3.4525    8.1560   -2.2368 H   0  0  0  0  0  0  0  0  0  0  0  0
    4.3923   10.1093   -3.3149 H   0  0  0  0  0  0  0  0  0  0  0  0
    6.7762   12.1437   -5.1099 H   0  0  0  0  0  0  0  0  0  0  0  0
    5.8072   11.9722   -3.6412 H   0  0  0  0  0  0  0  0  0  0  0  0
    5.3276   11.1357   -5.1710 H   0  0  0  0  0  0  0  0  0  0  0  0
   10.3788    8.8676   -3.2642 H   0  0  0  0  0  0  0  0  0  0  0  0
    9.0727    9.8080   -2.5362 H   0  0  0  0  0  0  0  0  0  0  0  0
    9.3127    9.7742   -4.3301 H   0  0  0  0  0  0  0  0  0  0  0  0
    7.2885    6.2021   -2.3936 H   0  0  0  0  0  0  0  0  0  0  0  0
    6.1230    2.1845   -1.2954 H   0  0  0  0  0  0  0  0  0  0  0  0
    4.9901    0.1493   -0.4985 H   0  0  0  0  0  0  0  0  0  0  0  0
  1  2  1  0  0  0  0
  1 21  1  0  0  0  0
  1 22  1  0  0  0  0
  1 23  1  0  0  0  0
  2  3  1  0  0  0  0
  3  4  1  0  0  0  0
  3 20  2  0  0  0  0
  4  5  2  0  0  0  0
  4 24  1  0  0  0  0
  5  6  1  0  0  0  0
  5 25  1  0  0  0  0
  6  7  1  0  0  0  0
  6 19  2  0  0  0  0
  7  8  2  0  0  0  0
  7 26  1  0  0  0  0
  8  9  1  0  0  0  0
  8 27  1  0  0  0  0
  9 10  1  0  0  0  0
  9 18  2  0  0  0  0
 10 11  2  0  0  0  0
 10 28  1  0  0  0  0
 11 12  1  0  0  0  0
 11 29  1  0  0  0  0
 12 13  1  0  0  0  0
 12 15  2  0  0  0  0
 13 14  1  0  0  0  0
 14 30  1  0  0  0  0
 14 31  1  0  0  0  0
 14 32  1  0  0  0  0
 15 16  1  0  0  0  0
 15 18  1  0  0  0  0
 16 17  1  0  0  0  0
 17 33  1  0  0  0  0
 17 34  1  0  0  0  0
 17 35  1  0  0  0  0
 18 36  1  0  0  0  0
 19 20  1  0  0  0  0
 19 37  1  0  0  0  0
 20 38  1  0  0  0  0
M  END
>  <Energy>
63.9516

$$$$

 OpenBabel04232614443D

 40 42  0  0  0  0  0  0  0  0999 V2000
    1.1965   -0.1171   -0.0165 C   0  0  0  0  0  0  0  0  0  0  0  0
    2.6412   -0.0330   -0.1888 N   0  0  0  0  0  0  0  0  0  0  0  0
    3.3698   -1.2955   -0.2499 C   0  0  0  0  0  0  0  0  0  0  0  0
    3.3245    1.1277    0.1850 C   0  0  0  0  0  0  0  0  0  0  0  0
    2.6705    2.2396    0.7287 C   0  0  0  0  0  0  0  0  0  0  0  0
    3.3540    3.4196    1.0823 C   0  0  0  0  0  0  0  0  0  0  0  0
    4.7326    3.5273    0.8897 C   0  0  0  0  0  0  0  0  0  0  0  0
    5.4811    4.7737    1.1275 C   0  0  0  0  0  0  0  0  0  0  0  0
    5.1230    5.7558    1.9889 C   0  0  0  0  0  0  0  0  0  0  0  0
    5.9269    6.9880    2.1593 C   0  0  0  0  0  0  0  0  0  0  0  0
    6.1671    7.4189    3.4740 C   0  0  0  0  0  0  0  0  0  0  0  0
    7.0192    8.4913    3.7267 C   0  0  0  0  0  0  0  0  0  0  0  0
    7.7205    9.0771    2.6783 C   0  0  0  0  0  0  0  0  0  0  0  0
    7.4553    8.7092    1.3541 C   0  0  0  0  0  0  0  0  0  0  0  0
    8.1327    9.3467    0.3055 C   0  0  0  0  0  0  0  0  0  0  0  0
    7.6566    9.2543   -0.9987 C   0  0  0  0  0  0  0  0  0  0  0  0
    6.5600    8.4491   -1.2734 C   0  0  0  0  0  0  0  0  0  0  0  0
    6.0160    7.6490   -0.2648 C   0  0  0  0  0  0  0  0  0  0  0  0
    6.4569    7.7472    1.0765 C   0  0  0  0  0  0  0  0  0  0  0  0
    5.4015    2.4341    0.3385 C   0  0  0  0  0  0  0  0  0  0  0  0
    4.7099    1.2599   -0.0034 C   0  0  0  0  0  0  0  0  0  0  0  0
    0.8031   -1.0772   -0.3701 H   0  0  0  0  0  0  0  0  0  0  0  0
    0.6903    0.6566   -0.6055 H   0  0  0  0  0  0  0  0  0  0  0  0
    0.9134   -0.0156    1.0374 H   0  0  0  0  0  0  0  0  0  0  0  0
    2.6923   -2.1449   -0.3960 H   0  0  0  0  0  0  0  0  0  0  0  0
    3.9210   -1.4779    0.6794 H   0  0  0  0  0  0  0  0  0  0  0  0
    4.0632   -1.3051   -1.0972 H   0  0  0  0  0  0  0  0  0  0  0  0
    1.5975    2.2324    0.8945 H   0  0  0  0  0  0  0  0  0  0  0  0
    2.7789    4.2473    1.4782 H   0  0  0  0  0  0  0  0  0  0  0  0
    6.3795    4.8837    0.5397 H   0  0  0  0  0  0  0  0  0  0  0  0
    4.2660    5.6515    2.6484 H   0  0  0  0  0  0  0  0  0  0  0  0
    5.6924    6.9200    4.3158 H   0  0  0  0  0  0  0  0  0  0  0  0
    7.1537    8.8598    4.7401 H   0  0  0  0  0  0  0  0  0  0  0  0
    8.4147    9.8867    2.8922 H   0  0  0  0  0  0  0  0  0  0  0  0
    9.0122    9.9538    0.5058 H   0  0  0  0  0  0  0  0  0  0  0  0
    8.1185    9.8425   -1.7862 H   0  0  0  0  0  0  0  0  0  0  0  0
    6.1284    8.4356   -2.2704 H   0  0  0  0  0  0  0  0  0  0  0  0
    5.1843    6.9969   -0.5227 H   0  0  0  0  0  0  0  0  0  0  0  0
    6.4721    2.4814    0.1486 H   0  0  0  0  0  0  0  0  0  0  0  0
    5.2880    0.4616   -0.4563 H   0  0  0  0  0  0  0  0  0  0  0  0
  1  2  1  0  0  0  0
  1 22  1  0  0  0  0
  1 23  1  0  0  0  0
  1 24  1  0  0  0  0
  2  3  1  0  0  0  0
  2  4  1  0  0  0  0
  3 25  1  0  0  0  0
  3 26  1  0  0  0  0
  3 27  1  0  0  0  0
  4  5  1  0  0  0  0
  4 21  2  0  0  0  0
  5  6  2  0  0  0  0
  5 28  1  0  0  0  0
  6  7  1  0  0  0  0
  6 29  1  0  0  0  0
  7  8  1  0  0  0  0
  7 20  2  0  0  0  0
  8  9  2  0  0  0  0
  8 30  1  0  0  0  0
  9 10  1  0  0  0  0
  9 31  1  0  0  0  0
 10 11  1  0  0  0  0
 10 19  2  0  0  0  0
 11 12  2  0  0  0  0
 11 32  1  0  0  0  0
 12 13  1  0  0  0  0
 12 33  1  0  0  0  0
 13 14  2  0  0  0  0
 13 34  1  0  0  0  0
 14 15  1  0  0  0  0
 14 19  1  0  0  0  0
 15 16  2  0  0  0  0
 15 35  1  0  0  0  0
 16 17  1  0  0  0  0
 16 36  1  0  0  0  0
 17 18  2  0  0  0  0
 17 37  1  0  0  0  0
 18 19  1  0  0  0  0
 18 38  1  0  0  0  0
 20 21  1  0  0  0  0
 20 39  1  0  0  0  0
 21 40  1  0  0  0  0
M  END
>  <Energy>
70.1774

$$$$

 OpenBabel04232614443D

 40 42  0  0  0  0  0  0  0  0999 V2000
    1.2786    1.3126    0.3666 C   0  0  0  0  0  0  0  0  0  0  0  0
    2.7671    1.2010    0.0863 C   0  0  0  0  0  0  0  0  0  0  0  0
    2.9737    0.4043   -1.0861 O   0  0  0  0  0  0  0  0  0  0  0  0
    4.2545   -0.0708   -1.2330 C   0  0  0  0  0  0  0  0  0  0  0  0
    5.3739    0.5285   -0.6559 C   0  0  0  0  0  0  0  0  0  0  0  0
    6.5934   -0.1381   -0.6571 C   0  0  0  0  0  0  0  0  0  0  0  0
    6.7217   -1.4238   -1.2130 C   0  0  0  0  0  0  0  0  0  0  0  0
    7.8706   -2.3770   -0.7850 C   0  0  0  0  0  0  0  0  0  0  0  0
    7.3965   -3.3199    0.2611 N   0  0  0  0  0  0  0  0  0  0  0  0
    6.1980   -4.1108    0.1205 C   0  0  0  0  0  0  0  0  0  0  0  0
    7.6007   -2.5716    1.4285 C   0  0  0  0  0  0  0  0  0  0  0  0
    6.9192   -2.5929    2.6305 C   0  0  0  0  0  0  0  0  0  0  0  0
    7.2500   -1.6373    3.5978 C   0  0  0  0  0  0  0  0  0  0  0  0
    8.2874   -0.7152    3.3767 C   0  0  0  0  0  0  0  0  0  0  0  0
    8.9939   -0.7176    2.1727 C   0  0  0  0  0  0  0  0  0  0  0  0
    8.6145   -1.6324    1.2035 C   0  0  0  0  0  0  0  0  0  0  0  0
    9.0080   -1.6024   -0.1786 N   0  0  0  0  0  0  0  0  0  0  0  0
   10.3279   -2.2028   -0.3490 C   0  0  0  0  0  0  0  0  0  0  0  0
    5.6446   -1.9090   -1.9780 C   0  0  0  0  0  0  0  0  0  0  0  0
    4.4158   -1.2350   -1.9754 C   0  0  0  0  0  0  0  0  0  0  0  0
    1.0957    2.0342    1.1690 H   0  0  0  0  0  0  0  0  0  0  0  0
    0.8757    0.3423    0.6746 H   0  0  0  0  0  0  0  0  0  0  0  0
    0.7336    1.6246   -0.5279 H   0  0  0  0  0  0  0  0  0  0  0  0
    3.2513    0.7544    0.9686 H   0  0  0  0  0  0  0  0  0  0  0  0
    3.1688    2.2048   -0.0905 H   0  0  0  0  0  0  0  0  0  0  0  0
    5.3166    1.4749   -0.1279 H   0  0  0  0  0  0  0  0  0  0  0  0
    7.4196    0.3180   -0.1185 H   0  0  0  0  0  0  0  0  0  0  0  0
    8.2157   -2.9262   -1.6744 H   0  0  0  0  0  0  0  0  0  0  0  0
    6.1847   -4.6135   -0.8521 H   0  0  0  0  0  0  0  0  0  0  0  0
    5.2852   -3.5145    0.2250 H   0  0  0  0  0  0  0  0  0  0  0  0
    6.1685   -4.9006    0.8801 H   0  0  0  0  0  0  0  0  0  0  0  0
    6.0986   -3.2787    2.8028 H   0  0  0  0  0  0  0  0  0  0  0  0
    6.6782   -1.5897    4.5215 H   0  0  0  0  0  0  0  0  0  0  0  0
    8.5119    0.0339    4.1313 H   0  0  0  0  0  0  0  0  0  0  0  0
    9.7509    0.0308    1.9654 H   0  0  0  0  0  0  0  0  0  0  0  0
   10.9902   -2.0186    0.5059 H   0  0  0  0  0  0  0  0  0  0  0  0
   10.8080   -1.7528   -1.2245 H   0  0  0  0  0  0  0  0  0  0  0  0
   10.2767   -3.2852   -0.5124 H   0  0  0  0  0  0  0  0  0  0  0  0
    5.7161   -2.8683   -2.4843 H   0  0  0  0  0  0  0  0  0  0  0  0
    3.5606   -1.6769   -2.4791 H   0  0  0  0  0  0  0  0  0  0  0  0
  1  2  1  0  0  0  0
  1 21  1  0  0  0  0
  1 22  1  0  0  0  0
  1 23  1  0  0  0  0
  2  3  1  0  0  0  0
  2 24  1  0  0  0  0
  2 25  1  0  0  0  0
  3  4  1  0  0  0  0
  4  5  1  0  0  0  0
  4 20  2  0  0  0  0
  5  6  2  0  0  0  0
  5 26  1  0  0  0  0
  6  7  1  0  0  0  0
  6 27  1  0  0  0  0
  7  8  1  0  0  0  0
  7 19  2  0  0  0  0
  8  9  1  0  0  0  0
  8 17  1  0  0  0  0
  8 28  1  0  0  0  0
  9 10  1  0  0  0  0
  9 11  1  0  0  0  0
 10 29  1  0  0  0  0
 10 30  1  0  0  0  0
 10 31  1  0  0  0  0
 11 12  1  0  0  0  0
 11 16  2  0  0  0  0
 12 13  2  0  0  0  0
 12 32  1  0  0  0  0
 13 14  1  0  0  0  0
 13 33  1  0  0  0  0
 14 15  2  0  0  0  0
 14 34  1  0  0  0  0
 15 16  1  0  0  0  0
 15 35  1  0  0  0  0
 16 17  1  0  0  0  0
 17 18  1  0  0  0  0
 18 36  1  0  0  0  0
 18 37  1  0  0  0  0
 18 38  1  0  0  0  0
 19 20  1  0  0  0  0
 19 39  1  0  0  0  0
 20 40  1  0  0  0  0
M  END
>  <Energy>
49.9462

$$$$

 OpenBabel04232614443D

 36 38  0  0  0  0  0  0  0  0999 V2000
    1.0410    0.0648   -0.0612 C   0  0  0  0  0  0  0  0  0  0  0  0
    2.5516   -0.0327   -0.0811 C   0  0  0  0  0  0  0  0  0  0  0  0
    3.2608   -0.2856   -1.1447 N   0  0  0  0  0  0  0  0  0  0  0  0
    2.6396   -0.4916   -2.3352 N   0  0  0  0  0  0  0  0  0  0  0  0
    3.4511   -0.7179   -3.4683 C   0  0  0  0  0  0  0  0  0  0  0  0
    4.7614   -0.2487   -3.5049 C   0  0  0  0  0  0  0  0  0  0  0  0
    5.5515   -0.5066   -4.6163 C   0  0  0  0  0  0  0  0  0  0  0  0
    5.0110   -1.2090   -5.6909 C   0  0  0  0  0  0  0  0  0  0  0  0
    5.7817   -1.5025   -6.8285 C   0  0  0  0  0  0  0  0  0  0  0  0
    5.2175   -2.1899   -7.8994 C   0  0  0  0  0  0  0  0  0  0  0  0
    3.8833   -2.5758   -7.8365 C   0  0  0  0  0  0  0  0  0  0  0  0
    3.1241   -2.2867   -6.6953 C   0  0  0  0  0  0  0  0  0  0  0  0
    3.6627   -1.6149   -5.6040 C   0  0  0  0  0  0  0  0  0  0  0  0
    2.9008   -1.3759   -4.5134 N   0  0  0  0  0  0  0  0  0  0  0  0
    3.3036    0.2420    1.1948 C   0  0  0  0  0  0  0  0  0  0  0  0
    4.6134    0.7418    1.0748 C   0  0  0  0  0  0  0  0  0  0  0  0
    5.3737    1.0501    2.2048 C   0  0  0  0  0  0  0  0  0  0  0  0
    4.8372    0.8569    3.4732 C   0  0  0  0  0  0  0  0  0  0  0  0
    3.5458    0.3473    3.6124 C   0  0  0  0  0  0  0  0  0  0  0  0
    2.7831    0.0381    2.4791 C   0  0  0  0  0  0  0  0  0  0  0  0
    1.5347   -0.4875    2.6608 O   0  0  0  0  0  0  0  0  0  0  0  0
    0.6143    0.1320   -1.0642 H   0  0  0  0  0  0  0  0  0  0  0  0
    0.7388    0.9683    0.4768 H   0  0  0  0  0  0  0  0  0  0  0  0
    0.6156   -0.8179    0.4226 H   0  0  0  0  0  0  0  0  0  0  0  0
    1.7888   -1.0399   -2.4079 H   0  0  0  0  0  0  0  0  0  0  0  0
    5.1688    0.2983   -2.6626 H   0  0  0  0  0  0  0  0  0  0  0  0
    6.5807   -0.1559   -4.6307 H   0  0  0  0  0  0  0  0  0  0  0  0
    6.8243   -1.1993   -6.8822 H   0  0  0  0  0  0  0  0  0  0  0  0
    5.8158   -2.4204   -8.7771 H   0  0  0  0  0  0  0  0  0  0  0  0
    3.4288   -3.1049   -8.6702 H   0  0  0  0  0  0  0  0  0  0  0  0
    2.0817   -2.5948   -6.6574 H   0  0  0  0  0  0  0  0  0  0  0  0
    5.0502    0.9045    0.0913 H   0  0  0  0  0  0  0  0  0  0  0  0
    6.3813    1.4418    2.0897 H   0  0  0  0  0  0  0  0  0  0  0  0
    5.4265    1.0993    4.3545 H   0  0  0  0  0  0  0  0  0  0  0  0
    3.1518    0.1957    4.6134 H   0  0  0  0  0  0  0  0  0  0  0  0
    1.3736   -0.6123    3.6110 H   0  0  0  0  0  0  0  0  0  0  0  0
  1  2  1  0  0  0  0
  1 22  1  0  0  0  0
  1 23  1  0  0  0  0
  1 24  1  0  0  0  0
  2  3  2  0  0  0  0
  2 15  1  0  0  0  0
  3  4  1  0  0  0  0
  4  5  1  0  0  0  0
  4 25  1  0  0  0  0
  5  6  1  0  0  0  0
  5 14  2  0  0  0  0
  6  7  2  0  0  0  0
  6 26  1  0  0  0  0
  7  8  1  0  0  0  0
  7 27  1  0  0  0  0
  8  9  1  0  0  0  0
  8 13  2  0  0  0  0
  9 10  2  0  0  0  0
  9 28  1  0  0  0  0
 10 11  1  0  0  0  0
 10 29  1  0  0  0  0
 11 12  2  0  0  0  0
 11 30  1  0  0  0  0
 12 13  1  0  0  0  0
 12 31  1  0  0  0  0
 13 14  1  0  0  0  0
 15 16  1  0  0  0  0
 15 20  2  0  0  0  0
 16 17  2  0  0  0  0
 16 32  1  0  0  0  0
 17 18  1  0  0  0  0
 17 33  1  0  0  0  0
 18 19  2  0  0  0  0
 18 34  1  0  0  0  0
 19 20  1  0  0  0  0
 19 35  1  0  0  0  0
 20 21  1  0  0  0  0
 21 36  1  0  0  0  0
M  END
>  <Energy>
76.4026

$$$$

 OpenBabel04232614443D

 23 24  0  0  0  0  0  0  0  0999 V2000
   -2.5464   -0.9322   -0.1026 Cl  0  0  0  0  0  0  0  0  0  0  0  0
   -1.0815   -0.0418   -0.0568 C   0  0  0  0  0  0  0  0  0  0  0  0
   -1.0304    1.2185    0.5153 C   0  0  0  0  0  0  0  0  0  0  0  0
    0.0948    1.9683    0.5858 N   0  0  0  0  0  0  0  0  0  0  0  0
    1.2416    1.4579    0.0655 C   0  0  0  0  0  0  0  0  0  0  0  0
    2.4640    2.1821    0.1857 N   0  0  0  0  0  0  0  0  0  0  0  0
    2.3418    3.5386    0.3306 N   0  0  0  0  0  0  0  0  0  0  0  0
    3.4616    4.1845    0.4020 C   0  0  0  0  0  0  0  0  0  0  0  0
    3.4685    5.6230    0.4950 C   0  0  0  0  0  0  0  0  0  0  0  0
    2.3959    6.4921    0.5101 C   0  0  0  0  0  0  0  0  0  0  0  0
    2.8052    7.8538    0.5979 C   0  0  0  0  0  0  0  0  0  0  0  0
    4.1762    7.9759    0.6478 C   0  0  0  0  0  0  0  0  0  0  0  0
    4.9587    6.4548    0.5854 S   0  0  0  0  0  0  0  0  0  0  0  0
    1.2595    0.1773   -0.5187 C   0  0  0  0  0  0  0  0  0  0  0  0
    2.7033   -0.4826   -1.2038 Cl  0  0  0  0  0  0  0  0  0  0  0  0
    0.0841   -0.5716   -0.5892 C   0  0  0  0  0  0  0  0  0  0  0  0
   -1.9126    1.6789    0.9509 H   0  0  0  0  0  0  0  0  0  0  0  0
    3.1186    1.8646   -0.5318 H   0  0  0  0  0  0  0  0  0  0  0  0
    4.4313    3.6534    0.3803 H   0  0  0  0  0  0  0  0  0  0  0  0
    1.3651    6.1586    0.4578 H   0  0  0  0  0  0  0  0  0  0  0  0
    2.1274    8.6983    0.6232 H   0  0  0  0  0  0  0  0  0  0  0  0
    4.7576    8.8850    0.7173 H   0  0  0  0  0  0  0  0  0  0  0  0
    0.0820   -1.5534   -1.0544 H   0  0  0  0  0  0  0  0  0  0  0  0
  1  2  1  0  0  0  0
  2  3  1  0  0  0  0
  2 16  2  0  0  0  0
  3  4  2  0  0  0  0
  3 17  1  0  0  0  0
  4  5  1  0  0  0  0
  5  6  1  0  0  0  0
  5 14  2  0  0  0  0
  6  7  1  0  0  0  0
  6 18  1  0  0  0  0
  7  8  2  0  0  0  0
  8  9  1  0  0  0  0
  8 19  1  0  0  0  0
  9 10  2  0  0  0  0
  9 13  1  0  0  0  0
 10 11  1  0  0  0  0
 10 20  1  0  0  0  0
 11 12  2  0  0  0  0
 11 21  1  0  0  0  0
 12 13  1  0  0  0  0
 12 22  1  0  0  0  0
 14 15  1  0  0  0  0
 14 16  1  0  0  0  0
 16 23  1  0  0  0  0
M  END
>  <Energy>
75.7372

$$$$

 OpenBabel04232614443D

 36 38  0  0  0  0  0  0  0  0999 V2000
    1.4821   -0.4135    0.6386 C   0  0  0  0  0  0  0  0  0  0  0  0
    2.6060   -0.0096   -0.1328 O   0  0  0  0  0  0  0  0  0  0  0  0
    3.1453    1.2148    0.1503 C   0  0  0  0  0  0  0  0  0  0  0  0
    2.7080    2.0934    1.1328 C   0  0  0  0  0  0  0  0  0  0  0  0
    3.3682    3.3115    1.3148 C   0  0  0  0  0  0  0  0  0  0  0  0
    4.4788    3.6732    0.5163 C   0  0  0  0  0  0  0  0  0  0  0  0
    5.2110    4.8784    0.6795 C   0  0  0  0  0  0  0  0  0  0  0  0
    4.8742    5.8070    1.6927 N   0  0  0  0  0  0  0  0  0  0  0  0
    5.8484    6.6207    2.1558 N   0  0  0  0  0  0  0  0  0  0  0  0
    5.4926    7.5210    3.0136 C   0  0  0  0  0  0  0  0  0  0  0  0
    6.5085    8.3692    3.6719 C   0  0  0  0  0  0  0  0  0  0  0  0
    7.8697    8.1508    3.4288 C   0  0  0  0  0  0  0  0  0  0  0  0
    8.8300    8.9059    4.1002 C   0  0  0  0  0  0  0  0  0  0  0  0
    8.4296    9.8824    5.0101 C   0  0  0  0  0  0  0  0  0  0  0  0
    7.0726   10.1084    5.2468 C   0  0  0  0  0  0  0  0  0  0  0  0
    6.1050    9.3506    4.5800 C   0  0  0  0  0  0  0  0  0  0  0  0
    6.3420    5.0855   -0.1138 C   0  0  0  0  0  0  0  0  0  0  0  0
    6.6725    4.1449   -1.0654 C   0  0  0  0  0  0  0  0  0  0  0  0
    5.9809    3.0069   -1.2634 N   0  0  0  0  0  0  0  0  0  0  0  0
    4.9189    2.7698   -0.4765 C   0  0  0  0  0  0  0  0  0  0  0  0
    4.2425    1.5690   -0.6390 C   0  0  0  0  0  0  0  0  0  0  0  0
    1.1691   -1.4000    0.2833 H   0  0  0  0  0  0  0  0  0  0  0  0
    0.6411    0.2735    0.4985 H   0  0  0  0  0  0  0  0  0  0  0  0
    1.7435   -0.5084    1.6978 H   0  0  0  0  0  0  0  0  0  0  0  0
    1.8707    1.8607    1.7817 H   0  0  0  0  0  0  0  0  0  0  0  0
    3.0239    3.9672    2.1101 H   0  0  0  0  0  0  0  0  0  0  0  0
    3.8886    6.0472    1.7571 H   0  0  0  0  0  0  0  0  0  0  0  0
    4.4376    7.6700    3.3057 H   0  0  0  0  0  0  0  0  0  0  0  0
    8.1881    7.3771    2.7318 H   0  0  0  0  0  0  0  0  0  0  0  0
    9.8865    8.7243    3.9169 H   0  0  0  0  0  0  0  0  0  0  0  0
    9.1800   10.4642    5.5397 H   0  0  0  0  0  0  0  0  0  0  0  0
    6.7696   10.8687    5.9644 H   0  0  0  0  0  0  0  0  0  0  0  0
    5.0536    9.5277    4.7839 H   0  0  0  0  0  0  0  0  0  0  0  0
    6.9451    5.9797   -0.0027 H   0  0  0  0  0  0  0  0  0  0  0  0
    7.5334    4.2854   -1.7115 H   0  0  0  0  0  0  0  0  0  0  0  0
    4.5937    0.8749   -1.3997 H   0  0  0  0  0  0  0  0  0  0  0  0
  1  2  1  0  0  0  0
  1 22  1  0  0  0  0
  1 23  1  0  0  0  0
  1 24  1  0  0  0  0
  2  3  1  0  0  0  0
  3  4  1  0  0  0  0
  3 21  2  0  0  0  0
  4  5  2  0  0  0  0
  4 25  1  0  0  0  0
  5  6  1  0  0  0  0
  5 26  1  0  0  0  0
  6  7  1  0  0  0  0
  6 20  2  0  0  0  0
  7  8  1  0  0  0  0
  7 17  2  0  0  0  0
  8  9  1  0  0  0  0
  8 27  1  0  0  0  0
  9 10  2  3  0  0  0
 10 11  1  0  0  0  0
 10 28  1  0  0  0  0
 11 12  1  0  0  0  0
 11 16  2  0  0  0  0
 12 13  2  0  0  0  0
 12 29  1  0  0  0  0
 13 14  1  0  0  0  0
 13 30  1  0  0  0  0
 14 15  2  0  0  0  0
 14 31  1  0  0  0  0
 15 16  1  0  0  0  0
 15 32  1  0  0  0  0
 16 33  1  0  0  0  0
 17 18  1  0  0  0  0
 17 34  1  0  0  0  0
 18 19  2  0  0  0  0
 18 35  1  0  0  0  0
 19 20  1  0  0  0  0
 20 21  1  0  0  0  0
 21 36  1  0  0  0  0
M  END
>  <Energy>
85.2702

$$$$

 OpenBabel04232614443D

 40 40  0  0  0  0  0  0  0  0999 V2000
    3.2302   -0.9289    1.1022 C   0  0  0  0  0  0  0  0  0  0  0  0
    2.5700   -0.0173    0.0938 C   0  0  0  0  0  0  0  0  0  0  0  0
    1.4782    0.4879    0.3567 O   0  0  0  0  0  0  0  0  0  0  0  0
    3.2931    0.2665   -1.2018 C   0  0  0  0  0  0  0  0  0  0  0  0
    2.6322    0.5180   -2.3557 C   0  0  0  0  0  0  0  0  0  0  0  0
    1.1914    0.5387   -2.5514 C   0  0  0  0  0  0  0  0  0  0  0  0
    0.5756    0.9294   -3.6787 C   0  0  0  0  0  0  0  0  0  0  0  0
   -0.8915    0.9973   -3.7333 C   0  0  0  0  0  0  0  0  0  0  0  0
   -1.5487    2.1912   -3.4132 C   0  0  0  0  0  0  0  0  0  0  0  0
   -2.9453    2.2490   -3.4053 C   0  0  0  0  0  0  0  0  0  0  0  0
   -3.6927    1.1148   -3.7164 C   0  0  0  0  0  0  0  0  0  0  0  0
   -3.0458   -0.0778   -4.0377 C   0  0  0  0  0  0  0  0  0  0  0  0
   -1.6487   -0.1370   -4.0452 C   0  0  0  0  0  0  0  0  0  0  0  0
    4.7822    0.3457   -1.1317 C   0  0  0  0  0  0  0  0  0  0  0  0
    5.3588    0.4604   -0.0611 O   0  0  0  0  0  0  0  0  0  0  0  0
    5.4057    0.2581   -2.3367 O   0  0  0  0  0  0  0  0  0  0  0  0
    6.8674    0.2872   -2.3661 C   0  0  0  0  0  0  0  0  0  0  0  0
    7.4594   -0.9519   -1.6789 C   0  0  0  0  0  0  0  0  0  0  0  0
    7.2710    0.2444   -3.8487 C   0  0  0  0  0  0  0  0  0  0  0  0
    7.4238    1.5910   -1.7711 C   0  0  0  0  0  0  0  0  0  0  0  0
    2.4652   -1.3492    1.7625 H   0  0  0  0  0  0  0  0  0  0  0  0
    3.9326   -0.3609    1.7175 H   0  0  0  0  0  0  0  0  0  0  0  0
    3.7360   -1.7609    0.6049 H   0  0  0  0  0  0  0  0  0  0  0  0
    3.2073    0.7645   -3.2483 H   0  0  0  0  0  0  0  0  0  0  0  0
    0.5556    0.2516   -1.7121 H   0  0  0  0  0  0  0  0  0  0  0  0
    1.1093    1.2506   -4.5678 H   0  0  0  0  0  0  0  0  0  0  0  0
   -0.9787    3.0791   -3.1505 H   0  0  0  0  0  0  0  0  0  0  0  0
   -3.4486    3.1768   -3.1449 H   0  0  0  0  0  0  0  0  0  0  0  0
   -4.7795    1.1578   -3.6985 H   0  0  0  0  0  0  0  0  0  0  0  0
   -3.6284   -0.9649   -4.2705 H   0  0  0  0  0  0  0  0  0  0  0  0
   -1.1576   -1.0778   -4.2817 H   0  0  0  0  0  0  0  0  0  0  0  0
    7.0791   -1.8708   -2.1389 H   0  0  0  0  0  0  0  0  0  0  0  0
    7.1983   -1.0078   -0.6177 H   0  0  0  0  0  0  0  0  0  0  0  0
    8.5538   -0.9607   -1.7461 H   0  0  0  0  0  0  0  0  0  0  0  0
    6.8979   -0.6651   -4.3330 H   0  0  0  0  0  0  0  0  0  0  0  0
    8.3581    0.2741   -3.9683 H   0  0  0  0  0  0  0  0  0  0  0  0
    6.8415    1.0915   -4.3975 H   0  0  0  0  0  0  0  0  0  0  0  0
    7.2452    1.6737   -0.6952 H   0  0  0  0  0  0  0  0  0  0  0  0
    6.9491    2.4619   -2.2356 H   0  0  0  0  0  0  0  0  0  0  0  0
    8.5072    1.6647   -1.9163 H   0  0  0  0  0  0  0  0  0  0  0  0
  1  2  1  0  0  0  0
  1 21  1  0  0  0  0
  1 22  1  0  0  0  0
  1 23  1  0  0  0  0
  2  3  2  0  0  0  0
  2  4  1  0  0  0  0
  4  5  2  0  0  0  0
  4 14  1  0  0  0  0
  5  6  1  0  0  0  0
  5 24  1  0  0  0  0
  6  7  2  0  0  0  0
  6 25  1  0  0  0  0
  7  8  1  0  0  0  0
  7 26  1  0  0  0  0
  8  9  1  0  0  0  0
  8 13  2  0  0  0  0
  9 10  2  0  0  0  0
  9 27  1  0  0  0  0
 10 11  1  0  0  0  0
 10 28  1  0  0  0  0
 11 12  2  0  0  0  0
 11 29  1  0  0  0  0
 12 13  1  0  0  0  0
 12 30  1  0  0  0  0
 13 31  1  0  0  0  0
 14 15  2  0  0  0  0
 14 16  1  0  0  0  0
 16 17  1  0  0  0  0
 17 18  1  0  0  0  0
 17 19  1  0  0  0  0
 17 20  1  0  0  0  0
 18 32  1  0  0  0  0
 18 33  1  0  0  0  0
 18 34  1  0  0  0  0
 19 35  1  0  0  0  0
 19 36  1  0  0  0  0
 19 37  1  0  0  0  0
 20 38  1  0  0  0  0
 20 39  1  0  0  0  0
 20 40  1  0  0  0  0
M  END
>  <Energy>
39.1944

$$$$

 OpenBabel04232614443D

 31 34  0  0  0  0  0  0  0  0999 V2000
    2.4712   -0.6732   -0.0021 C   0  0  0  0  0  0  0  0  0  0  0  0
    2.4390    0.7164   -0.0000 C   0  0  0  0  0  0  0  0  0  0  0  0
    1.2108    1.3840    0.0024 C   0  0  0  0  0  0  0  0  0  0  0  0
    0.0061    0.6943    0.0036 C   0  0  0  0  0  0  0  0  0  0  0  0
   -1.1486    1.3767    0.0180 N   0  0  0  0  0  0  0  0  0  0  0  0
   -2.3055    0.6674    0.0222 C   0  0  0  0  0  0  0  0  0  0  0  0
   -2.4043   -0.7235   -0.0026 C   0  0  0  0  0  0  0  0  0  0  0  0
   -3.7047   -1.4278   -0.0089 C   0  0  0  0  0  0  0  0  0  0  0  0
   -4.8367   -0.8830   -0.6361 C   0  0  0  0  0  0  0  0  0  0  0  0
   -6.0674   -1.5569   -0.6406 C   0  0  0  0  0  0  0  0  0  0  0  0
   -6.2245   -2.7964   -0.0412 C   0  0  0  0  0  0  0  0  0  0  0  0
   -7.4128   -3.4138   -0.0786 N   0  0  0  0  0  0  0  0  0  0  0  0
   -7.4896   -4.6149    0.5149 C   0  0  0  0  0  0  0  0  0  0  0  0
   -6.4928   -5.2543    1.1421 N   0  0  0  0  0  0  0  0  0  0  0  0
   -5.3165   -4.6007    1.1623 C   0  0  0  0  0  0  0  0  0  0  0  0
   -5.1081   -3.3554    0.5848 C   0  0  0  0  0  0  0  0  0  0  0  0
   -3.8689   -2.6788    0.6087 C   0  0  0  0  0  0  0  0  0  0  0  0
   -1.1800   -1.4058   -0.0215 C   0  0  0  0  0  0  0  0  0  0  0  0
    0.0422   -0.7134   -0.0087 C   0  0  0  0  0  0  0  0  0  0  0  0
    1.2759   -1.3888   -0.0092 C   0  0  0  0  0  0  0  0  0  0  0  0
    3.4231   -1.1982    0.0001 H   0  0  0  0  0  0  0  0  0  0  0  0
    3.3647    1.2862    0.0015 H   0  0  0  0  0  0  0  0  0  0  0  0
    1.1917    2.4711    0.0050 H   0  0  0  0  0  0  0  0  0  0  0  0
   -3.1918    1.2965    0.0583 H   0  0  0  0  0  0  0  0  0  0  0  0
   -4.7846    0.0746   -1.1512 H   0  0  0  0  0  0  0  0  0  0  0  0
   -6.9228   -1.1000   -1.1343 H   0  0  0  0  0  0  0  0  0  0  0  0
   -8.4503   -5.1167    0.4823 H   0  0  0  0  0  0  0  0  0  0  0  0
   -4.5148   -5.1286    1.6720 H   0  0  0  0  0  0  0  0  0  0  0  0
   -3.0337   -3.1445    1.1292 H   0  0  0  0  0  0  0  0  0  0  0  0
   -1.1625   -2.4926   -0.0605 H   0  0  0  0  0  0  0  0  0  0  0  0
    1.3109   -2.4758   -0.0116 H   0  0  0  0  0  0  0  0  0  0  0  0
  1  2  1  0  0  0  0
  1 20  2  0  0  0  0
  1 21  1  0  0  0  0
  2  3  2  0  0  0  0
  2 22  1  0  0  0  0
  3  4  1  0  0  0  0
  3 23  1  0  0  0  0
  4  5  1  0  0  0  0
  4 19  2  0  0  0  0
  5  6  2  0  0  0  0
  6  7  1  0  0  0  0
  6 24  1  0  0  0  0
  7  8  1  0  0  0  0
  7 18  2  0  0  0  0
  8  9  1  0  0  0  0
  8 17  2  0  0  0  0
  9 10  2  0  0  0  0
  9 25  1  0  0  0  0
 10 11  1  0  0  0  0
 10 26  1  0  0  0  0
 11 12  1  0  0  0  0
 11 16  2  0  0  0  0
 12 13  2  0  0  0  0
 13 14  1  0  0  0  0
 13 27  1  0  0  0  0
 14 15  2  0  0  0  0
 15 16  1  0  0  0  0
 15 28  1  0  0  0  0
 16 17  1  0  0  0  0
 17 29  1  0  0  0  0
 18 19  1  0  0  0  0
 18 30  1  0  0  0  0
 19 20  1  0  0  0  0
 20 31  1  0  0  0  0
M  END
>  <Energy>
56.7593

$$$$

 OpenBabel04232614443D

 33 35  0  0  1  0  0  0  0  0999 V2000
    1.2963    0.4157   -0.1783 S   0  0  0  0  0  0  0  0  0  0  0  0
    3.0063    0.2316   -0.0796 C   0  0  0  0  0  0  0  0  0  0  0  0
    3.5946   -0.9429   -0.0635 N   0  0  0  0  0  0  0  0  0  0  0  0
    4.9441   -0.7317   -0.0514 N   0  0  0  0  0  0  0  0  0  0  0  0
    5.1763    0.5784   -0.0766 C   0  0  0  0  0  0  0  0  0  0  0  0
    6.5348    1.1545   -0.1272 C   0  0  0  0  0  0  0  0  0  0  0  0
    6.8173    2.4118   -0.6844 C   0  0  0  0  0  0  0  0  0  0  0  0
    8.0986    2.9571   -0.6816 C   0  0  0  0  0  0  0  0  0  0  0  0
    9.1578    2.2230   -0.1695 C   0  0  0  0  0  0  0  0  0  0  0  0
    8.9239    0.9470    0.3361 C   0  0  0  0  0  0  0  0  0  0  0  0
    7.6253    0.4200    0.3603 C   0  0  0  0  0  0  0  0  0  0  0  0
    3.9365    1.2284   -0.0280 N   0  0  0  0  0  0  0  0  0  0  0  0
    3.7467    2.6699    0.0851 C   0  0  3  0  0  0  0  0  0  0  0  0
    3.6331    3.3459   -1.2676 C   0  0  0  0  0  0  0  0  0  0  0  0
    3.0829    4.5565   -1.4275 C   0  0  0  0  0  0  0  0  0  0  0  0
    2.4538    5.3306   -0.3047 C   0  0  0  0  0  0  0  0  0  0  0  0
    2.7033    4.7266    1.0834 C   0  0  0  0  0  0  0  0  0  0  0  0
    2.6656    3.1940    1.0527 C   0  0  0  0  0  0  0  0  0  0  0  0
    0.9965   -0.8861   -0.0560 H   0  0  0  0  0  0  0  0  0  0  0  0
    6.0564    3.0131   -1.1544 H   0  0  0  0  0  0  0  0  0  0  0  0
    8.2583    3.9493   -1.0963 H   0  0  0  0  0  0  0  0  0  0  0  0
   10.1591    2.6407   -0.1827 H   0  0  0  0  0  0  0  0  0  0  0  0
    9.7577    0.3577    0.7111 H   0  0  0  0  0  0  0  0  0  0  0  0
    7.4758   -0.5841    0.7599 H   0  0  0  0  0  0  0  0  0  0  0  0
    4.6753    3.0270    0.5461 H   0  0  0  0  0  0  0  0  0  0  0  0
    4.0680    2.8507   -2.1359 H   0  0  0  0  0  0  0  0  0  0  0  0
    3.0721    5.0162   -2.4148 H   0  0  0  0  0  0  0  0  0  0  0  0
    1.3751    5.3693   -0.4953 H   0  0  0  0  0  0  0  0  0  0  0  0
    2.8198    6.3634   -0.3191 H   0  0  0  0  0  0  0  0  0  0  0  0
    1.9524    5.1050    1.7861 H   0  0  0  0  0  0  0  0  0  0  0  0
    3.6809    5.0588    1.4557 H   0  0  0  0  0  0  0  0  0  0  0  0
    1.6595    2.9025    0.7444 H   0  0  0  0  0  0  0  0  0  0  0  0
    2.8308    2.7914    2.0583 H   0  0  0  0  0  0  0  0  0  0  0  0
  1  2  1  0  0  0  0
  1 19  1  0  0  0  0
  2  3  2  0  0  0  0
  2 12  1  0  0  0  0
  3  4  1  0  0  0  0
  4  5  2  0  0  0  0
  5  6  1  0  0  0  0
  5 12  1  0  0  0  0
  6  7  1  0  0  0  0
  6 11  2  0  0  0  0
  7  8  2  0  0  0  0
  7 20  1  0  0  0  0
  8  9  1  0  0  0  0
  8 21  1  0  0  0  0
  9 10  2  0  0  0  0
  9 22  1  0  0  0  0
 10 11  1  0  0  0  0
 10 23  1  0  0  0  0
 11 24  1  0  0  0  0
 12 13  1  0  0  0  0
 13 14  1  0  0  0  0
 13 18  1  0  0  0  0
 13 25  1  0  0  0  0
 14 15  2  0  0  0  0
 14 26  1  0  0  0  0
 15 16  1  0  0  0  0
 15 27  1  0  0  0  0
 16 17  1  0  0  0  0
 16 28  1  0  0  0  0
 16 29  1  0  0  0  0
 17 18  1  0  0  0  0
 17 30  1  0  0  0  0
 17 31  1  0  0  0  0
 18 32  1  0  0  0  0
 18 33  1  0  0  0  0
M  END
>  <Energy>
38.5465

$$$$

 OpenBabel04232614443D

 32 34  0  0  0  0  0  0  0  0999 V2000
    1.0323    0.0156   -0.0628 C   0  0  0  0  0  0  0  0  0  0  0  0
    2.5302    0.0565   -0.0640 C   0  0  0  0  0  0  0  0  0  0  0  0
    3.2214    1.2164   -0.0643 C   0  0  0  0  0  0  0  0  0  0  0  0
    4.6755    1.1899   -0.0656 C   0  0  0  0  0  0  0  0  0  0  0  0
    5.3595    0.0308   -0.0637 C   0  0  0  0  0  0  0  0  0  0  0  0
    4.6534   -1.2026   -0.0628 C   0  0  0  0  0  0  0  0  0  0  0  0
    5.0908   -2.4438   -0.0666 N   0  0  0  0  0  0  0  0  0  0  0  0
    3.9635   -3.2343   -0.0800 C   0  0  0  0  0  0  0  0  0  0  0  0
    4.0804   -4.7176   -0.1176 C   0  0  0  0  0  0  0  0  0  0  0  0
    3.9660   -5.3657   -1.8126 S   0  0  0  0  0  0  0  0  0  0  0  0
    5.4894   -4.6327   -2.5054 C   0  0  0  0  0  0  0  0  0  0  0  0
    5.6459   -5.0512   -3.9226 C   0  0  0  0  0  0  0  0  0  0  0  0
    5.1726   -4.5394   -5.1144 C   0  0  0  0  0  0  0  0  0  0  0  0
    5.6382   -5.4031   -6.1336 C   0  0  0  0  0  0  0  0  0  0  0  0
    6.3761   -6.3767   -5.5028 C   0  0  0  0  0  0  0  0  0  0  0  0
    6.3963   -6.1664   -4.1614 O   0  0  0  0  0  0  0  0  0  0  0  0
    2.8271   -2.4513   -0.0710 C   0  0  0  0  0  0  0  0  0  0  0  0
    3.2598   -1.1454   -0.0646 N   0  0  0  0  0  0  0  0  0  0  0  0
    0.5988    1.0219   -0.0612 H   0  0  0  0  0  0  0  0  0  0  0  0
    0.6607   -0.5028    0.8271 H   0  0  0  0  0  0  0  0  0  0  0  0
    0.6586   -0.5010   -0.9529 H   0  0  0  0  0  0  0  0  0  0  0  0
    2.7296    2.1845   -0.0641 H   0  0  0  0  0  0  0  0  0  0  0  0
    5.1999    2.1416   -0.0677 H   0  0  0  0  0  0  0  0  0  0  0  0
    6.4424    0.0082   -0.0649 H   0  0  0  0  0  0  0  0  0  0  0  0
    3.2678   -5.1640    0.4654 H   0  0  0  0  0  0  0  0  0  0  0  0
    5.0203   -5.0462    0.3382 H   0  0  0  0  0  0  0  0  0  0  0  0
    6.3546   -4.9528   -1.9156 H   0  0  0  0  0  0  0  0  0  0  0  0
    5.4276   -3.5413   -2.4690 H   0  0  0  0  0  0  0  0  0  0  0  0
    4.5516   -3.6613   -5.2238 H   0  0  0  0  0  0  0  0  0  0  0  0
    5.4528   -5.3305   -7.1957 H   0  0  0  0  0  0  0  0  0  0  0  0
    6.9186   -7.2460   -5.8465 H   0  0  0  0  0  0  0  0  0  0  0  0
    1.7780   -2.7099   -0.0854 H   0  0  0  0  0  0  0  0  0  0  0  0
  1  2  1  0  0  0  0
  1 19  1  0  0  0  0
  1 20  1  0  0  0  0
  1 21  1  0  0  0  0
  2  3  2  0  0  0  0
  2 18  1  0  0  0  0
  3  4  1  0  0  0  0
  3 22  1  0  0  0  0
  4  5  2  0  0  0  0
  4 23  1  0  0  0  0
  5  6  1  0  0  0  0
  5 24  1  0  0  0  0
  6  7  2  0  0  0  0
  6 18  1  0  0  0  0
  7  8  1  0  0  0  0
  8  9  1  0  0  0  0
  8 17  2  0  0  0  0
  9 10  1  0  0  0  0
  9 25  1  0  0  0  0
  9 26  1  0  0  0  0
 10 11  1  0  0  0  0
 11 12  1  0  0  0  0
 11 27  1  0  0  0  0
 11 28  1  0  0  0  0
 12 13  2  0  0  0  0
 12 16  1  0  0  0  0
 13 14  1  0  0  0  0
 13 29  1  0  0  0  0
 14 15  2  0  0  0  0
 14 30  1  0  0  0  0
 15 16  1  0  0  0  0
 15 31  1  0  0  0  0
 17 18  1  0  0  0  0
 17 32  1  0  0  0  0
M  END
>  <Energy>
39.649

$$$$

 OpenBabel04232614443D

 27 29  0  0  0  0  0  0  0  0999 V2000
    0.9722   -0.1524   -0.0204 C   0  0  0  0  0  0  0  0  0  0  0  0
    2.4529   -0.0487   -0.0175 C   0  0  0  0  0  0  0  0  0  0  0  0
    3.2065   -1.1545   -0.0079 N   0  0  0  0  0  0  0  0  0  0  0  0
    4.4924   -0.7033   -0.0099 N   0  0  0  0  0  0  0  0  0  0  0  0
    4.5457    0.6984   -0.0200 C   0  0  0  0  0  0  0  0  0  0  0  0
    5.7336    1.3839   -0.0251 N   0  0  0  0  0  0  0  0  0  0  0  0
    6.8090    0.6589   -0.0195 C   0  0  0  0  0  0  0  0  0  0  0  0
    6.8676   -0.8241   -0.0079 C   0  0  0  0  0  0  0  0  0  0  0  0
    5.6801   -1.4571   -0.0033 C   0  0  0  0  0  0  0  0  0  0  0  0
    5.6771   -2.9267    0.0084 C   0  0  0  0  0  0  0  0  0  0  0  0
    5.6847   -3.6236    1.2261 C   0  0  0  0  0  0  0  0  0  0  0  0
    5.7412   -5.0187    1.2359 C   0  0  0  0  0  0  0  0  0  0  0  0
    5.7906   -5.7120    0.0319 C   0  0  0  0  0  0  0  0  0  0  0  0
    5.8551   -7.0496    0.0434 F   0  0  0  0  0  0  0  0  0  0  0  0
    5.7794   -5.0377   -1.1836 C   0  0  0  0  0  0  0  0  0  0  0  0
    5.7230   -3.6426   -1.1974 C   0  0  0  0  0  0  0  0  0  0  0  0
    3.2365    1.1225   -0.0241 C   0  0  0  0  0  0  0  0  0  0  0  0
    2.6606    2.7191   -0.0357 Cl  0  0  0  0  0  0  0  0  0  0  0  0
    0.6399   -1.1955   -0.0209 H   0  0  0  0  0  0  0  0  0  0  0  0
    0.5572    0.3336   -0.9094 H   0  0  0  0  0  0  0  0  0  0  0  0
    0.5538    0.3344    0.8665 H   0  0  0  0  0  0  0  0  0  0  0  0
    7.7894    1.1645   -0.0237 H   0  0  0  0  0  0  0  0  0  0  0  0
    7.8325   -1.3122   -0.0035 H   0  0  0  0  0  0  0  0  0  0  0  0
    5.6455   -3.0864    2.1713 H   0  0  0  0  0  0  0  0  0  0  0  0
    5.7478   -5.5678    2.1722 H   0  0  0  0  0  0  0  0  0  0  0  0
    5.8157   -5.6012   -2.1105 H   0  0  0  0  0  0  0  0  0  0  0  0
    5.7135   -3.1203   -2.1515 H   0  0  0  0  0  0  0  0  0  0  0  0
  1  2  1  0  0  0  0
  1 19  1  0  0  0  0
  1 20  1  0  0  0  0
  1 21  1  0  0  0  0
  2  3  2  0  0  0  0
  2 17  1  0  0  0  0
  3  4  1  0  0  0  0
  4  5  1  0  0  0  0
  4  9  1  0  0  0  0
  5  6  1  0  0  0  0
  5 17  2  0  0  0  0
  6  7  2  0  0  0  0
  7  8  1  0  0  0  0
  7 22  1  0  0  0  0
  8  9  2  0  0  0  0
  8 23  1  0  0  0  0
  9 10  1  0  0  0  0
 10 11  1  0  0  0  0
 10 16  2  0  0  0  0
 11 12  2  0  0  0  0
 11 24  1  0  0  0  0
 12 13  1  0  0  0  0
 12 25  1  0  0  0  0
 13 14  1  0  0  0  0
 13 15  2  0  0  0  0
 15 16  1  0  0  0  0
 15 26  1  0  0  0  0
 16 27  1  0  0  0  0
 17 18  1  0  0  0  0
M  END
>  <Energy>
79.1994

$$$$

 OpenBabel04232614443D

 34 36  0  0  0  0  0  0  0  0999 V2000
    0.9169   -0.0913    0.0021 C   0  0  0  0  0  0  0  0  0  0  0  0
    2.4571   -0.1922   -0.0519 C   0  0  0  0  0  0  0  0  0  0  0  0
    3.0305    0.8311    0.9478 C   0  0  0  0  0  0  0  0  0  0  0  0
    2.9578    0.1815   -1.4657 C   0  0  0  0  0  0  0  0  0  0  0  0
    2.5743   -0.8483   -2.5082 C   0  0  0  0  0  0  0  0  0  0  0  0
    2.3363   -0.5270   -3.6692 O   0  0  0  0  0  0  0  0  0  0  0  0
    2.5764   -2.2554   -2.0643 C   0  0  0  0  0  0  0  0  0  0  0  0
    2.3824   -3.5830   -3.1070 S   0  0  0  0  0  0  0  0  0  0  0  0
    2.5636   -4.6354   -1.7001 C   0  0  0  0  0  0  0  0  0  0  0  0
    2.4961   -5.9054   -1.9048 N   0  0  0  0  0  0  0  0  0  0  0  0
    2.6036   -6.9205   -0.9516 C   0  0  0  0  0  0  0  0  0  0  0  0
    2.2259   -6.8338    0.3904 C   0  0  0  0  0  0  0  0  0  0  0  0
    2.2609   -7.9702    1.2130 C   0  0  0  0  0  0  0  0  0  0  0  0
    2.6580   -9.2030    0.7022 C   0  0  0  0  0  0  0  0  0  0  0  0
    3.0357   -9.3056   -0.6325 C   0  0  0  0  0  0  0  0  0  0  0  0
    3.0088   -8.1700   -1.4443 C   0  0  0  0  0  0  0  0  0  0  0  0
    2.7693   -3.9955   -0.4917 O   0  0  0  0  0  0  0  0  0  0  0  0
    2.7543   -2.6120   -0.7918 C   0  0  0  0  0  0  0  0  0  0  0  0
    2.9223   -1.6296    0.3326 C   0  0  0  0  0  0  0  0  0  0  0  0
    0.5739    0.8878   -0.3511 H   0  0  0  0  0  0  0  0  0  0  0  0
    0.5508   -0.2174    1.0277 H   0  0  0  0  0  0  0  0  0  0  0  0
    0.4291   -0.8528   -0.6151 H   0  0  0  0  0  0  0  0  0  0  0  0
    2.7188    1.8504    0.6871 H   0  0  0  0  0  0  0  0  0  0  0  0
    4.1259    0.8140    0.9505 H   0  0  0  0  0  0  0  0  0  0  0  0
    2.6880    0.6289    1.9679 H   0  0  0  0  0  0  0  0  0  0  0  0
    4.0520    0.2665   -1.4822 H   0  0  0  0  0  0  0  0  0  0  0  0
    2.5447    1.1504   -1.7720 H   0  0  0  0  0  0  0  0  0  0  0  0
    1.8686   -5.9022    0.8136 H   0  0  0  0  0  0  0  0  0  0  0  0
    1.9512   -7.8938    2.2541 H   0  0  0  0  0  0  0  0  0  0  0  0
    2.6569  -10.0879    1.3343 H   0  0  0  0  0  0  0  0  0  0  0  0
    3.3302  -10.2640   -1.0508 H   0  0  0  0  0  0  0  0  0  0  0  0
    3.2780   -8.2620   -2.4945 H   0  0  0  0  0  0  0  0  0  0  0  0
    3.9823   -1.6183    0.6149 H   0  0  0  0  0  0  0  0  0  0  0  0
    2.3629   -1.9738    1.2110 H   0  0  0  0  0  0  0  0  0  0  0  0
  1  2  1  0  0  0  0
  1 20  1  0  0  0  0
  1 21  1  0  0  0  0
  1 22  1  0  0  0  0
  2  3  1  0  0  0  0
  2  4  1  0  0  0  0
  2 19  1  0  0  0  0
  3 23  1  0  0  0  0
  3 24  1  0  0  0  0
  3 25  1  0  0  0  0
  4  5  1  0  0  0  0
  4 26  1  0  0  0  0
  4 27  1  0  0  0  0
  5  6  2  0  0  0  0
  5  7  1  0  0  0  0
  7  8  1  0  0  0  0
  7 18  2  0  0  0  0
  8  9  1  0  0  0  0
  9 10  2  0  0  0  0
  9 17  1  0  0  0  0
 10 11  1  0  0  0  0
 11 12  1  0  0  0  0
 11 16  2  0  0  0  0
 12 13  2  0  0  0  0
 12 28  1  0  0  0  0
 13 14  1  0  0  0  0
 13 29  1  0  0  0  0
 14 15  2  0  0  0  0
 14 30  1  0  0  0  0
 15 16  1  0  0  0  0
 15 31  1  0  0  0  0
 16 32  1  0  0  0  0
 17 18  1  0  0  0  0
 18 19  1  0  0  0  0
 19 33  1  0  0  0  0
 19 34  1  0  0  0  0
M  END
>  <Energy>
42.13

$$$$

 OpenBabel04232614443D

 35 37  0  0  0  0  0  0  0  0999 V2000
   -2.3274   -1.2079   -0.2233 N   0  0  0  0  0  0  0  0  0  0  0  0
   -1.2197   -0.3737   -0.0274 C   0  0  0  0  0  0  0  0  0  0  0  0
   -1.1026    0.8129   -0.7453 C   0  0  0  0  0  0  0  0  0  0  0  0
    0.0678    1.5748   -0.6766 C   0  0  0  0  0  0  0  0  0  0  0  0
    1.1611    1.1609    0.1026 C   0  0  0  0  0  0  0  0  0  0  0  0
    2.4182    1.9389    0.0747 C   0  0  0  0  0  0  0  0  0  0  0  0
    2.4818    3.2793   -0.0077 C   0  0  0  0  0  0  0  0  0  0  0  0
    3.7663    3.9879   -0.0946 C   0  0  0  0  0  0  0  0  0  0  0  0
    4.3115    4.1732   -1.3655 C   0  0  0  0  0  0  0  0  0  0  0  0
    5.5105    4.8464   -1.4715 C   0  0  0  0  0  0  0  0  0  0  0  0
    6.1887    5.3404   -0.4157 N   0  0  0  0  0  0  0  0  0  0  0  0
    5.6701    5.1634    0.8104 C   0  0  0  0  0  0  0  0  0  0  0  0
    6.3676    5.6735    1.8972 C   0  0  0  0  0  0  0  0  0  0  0  0
    5.9026    5.5341    3.2062 C   0  0  0  0  0  0  0  0  0  0  0  0
    4.7094    4.8675    3.4446 C   0  0  0  0  0  0  0  0  0  0  0  0
    3.9868    4.3473    2.3712 C   0  0  0  0  0  0  0  0  0  0  0  0
    4.4501    4.4863    1.0407 C   0  0  0  0  0  0  0  0  0  0  0  0
    1.0579   -0.0506    0.8224 C   0  0  0  0  0  0  0  0  0  0  0  0
    2.1640   -0.6221    1.4875 N   0  0  0  0  0  0  0  0  0  0  0  0
   -0.1080   -0.8275    0.6884 C   0  0  0  0  0  0  0  0  0  0  0  0
   -3.1743   -0.7130   -0.4845 H   0  0  0  0  0  0  0  0  0  0  0  0
   -2.4846   -1.8664    0.5332 H   0  0  0  0  0  0  0  0  0  0  0  0
   -1.9116    1.1466   -1.3892 H   0  0  0  0  0  0  0  0  0  0  0  0
    0.1263    2.4772   -1.2795 H   0  0  0  0  0  0  0  0  0  0  0  0
    3.3337    1.3530    0.1076 H   0  0  0  0  0  0  0  0  0  0  0  0
    1.5969    3.9076   -0.0382 H   0  0  0  0  0  0  0  0  0  0  0  0
    3.8146    3.8039   -2.2562 H   0  0  0  0  0  0  0  0  0  0  0  0
    5.9746    5.0159   -2.4380 H   0  0  0  0  0  0  0  0  0  0  0  0
    7.3042    6.1978    1.7174 H   0  0  0  0  0  0  0  0  0  0  0  0
    6.4756    5.9485    4.0320 H   0  0  0  0  0  0  0  0  0  0  0  0
    4.3391    4.7528    4.4597 H   0  0  0  0  0  0  0  0  0  0  0  0
    3.0527    3.8288    2.5777 H   0  0  0  0  0  0  0  0  0  0  0  0
    2.8109    0.0670    1.8588 H   0  0  0  0  0  0  0  0  0  0  0  0
    1.9042   -1.3129    2.1854 H   0  0  0  0  0  0  0  0  0  0  0  0
   -0.1483   -1.8081    1.1556 H   0  0  0  0  0  0  0  0  0  0  0  0
  1  2  1  0  0  0  0
  1 21  1  0  0  0  0
  1 22  1  0  0  0  0
  2  3  1  0  0  0  0
  2 20  2  0  0  0  0
  3  4  2  0  0  0  0
  3 23  1  0  0  0  0
  4  5  1  0  0  0  0
  4 24  1  0  0  0  0
  5  6  1  0  0  0  0
  5 18  2  0  0  0  0
  6  7  2  0  0  0  0
  6 25  1  0  0  0  0
  7  8  1  0  0  0  0
  7 26  1  0  0  0  0
  8  9  1  0  0  0  0
  8 17  2  0  0  0  0
  9 10  2  0  0  0  0
  9 27  1  0  0  0  0
 10 11  1  0  0  0  0
 10 28  1  0  0  0  0
 11 12  2  0  0  0  0
 12 13  1  0  0  0  0
 12 17  1  0  0  0  0
 13 14  2  0  0  0  0
 13 29  1  0  0  0  0
 14 15  1  0  0  0  0
 14 30  1  0  0  0  0
 15 16  2  0  0  0  0
 15 31  1  0  0  0  0
 16 17  1  0  0  0  0
 16 32  1  0  0  0  0
 18 19  1  0  0  0  0
 18 20  1  0  0  0  0
 19 33  1  0  0  0  0
 19 34  1  0  0  0  0
 20 35  1  0  0  0  0
M  END
>  <Energy>
56.1011

$$$$

 OpenBabel04232614443D

 35 37  0  0  0  0  0  0  0  0999 V2000
    2.9531   -0.9521   -2.0555 C   0  0  0  0  0  0  0  0  0  0  0  0
    2.3247   -0.7393   -0.6882 C   0  0  0  0  0  0  0  0  0  0  0  0
    3.0654   -1.4192    0.4780 C   0  0  0  0  0  0  0  0  0  0  0  0
    4.5746   -1.2642    0.5353 C   0  0  0  0  0  0  0  0  0  0  0  0
    5.3673   -2.3446    0.4293 C   0  0  0  0  0  0  0  0  0  0  0  0
    6.8332   -2.2839    0.4502 C   0  0  0  0  0  0  0  0  0  0  0  0
    7.5039   -3.3063    0.3736 O   0  0  0  0  0  0  0  0  0  0  0  0
    7.3988   -1.0269    0.5434 O   0  0  0  0  0  0  0  0  0  0  0  0
    6.6137    0.1496    0.6494 C   0  0  0  0  0  0  0  0  0  0  0  0
    7.3248    1.3698    0.6973 C   0  0  0  0  0  0  0  0  0  0  0  0
    8.8161    1.4633    0.6483 C   0  0  0  0  0  0  0  0  0  0  0  0
    6.5079    2.5043    0.7197 C   0  0  0  0  0  0  0  0  0  0  0  0
    6.9413    3.7963    0.6700 O   0  0  0  0  0  0  0  0  0  0  0  0
    5.8392    4.5894    0.6595 C   0  0  0  0  0  0  0  0  0  0  0  0
    4.6868    3.8368    0.7247 C   0  0  0  0  0  0  0  0  0  0  0  0
    3.2850    4.3170    0.6821 C   0  0  0  0  0  0  0  0  0  0  0  0
    5.1226    2.4789    0.7803 C   0  0  0  0  0  0  0  0  0  0  0  0
    4.4724    1.2335    0.8408 C   0  0  0  0  0  0  0  0  0  0  0  0
    5.2124    0.0517    0.6954 C   0  0  0  0  0  0  0  0  0  0  0  0
    2.3445   -0.4597   -2.8219 H   0  0  0  0  0  0  0  0  0  0  0  0
    3.0144   -2.0155   -2.2996 H   0  0  0  0  0  0  0  0  0  0  0  0
    3.9566   -0.5193   -2.1103 H   0  0  0  0  0  0  0  0  0  0  0  0
    1.2965   -1.1217   -0.7085 H   0  0  0  0  0  0  0  0  0  0  0  0
    2.2248    0.3360   -0.5166 H   0  0  0  0  0  0  0  0  0  0  0  0
    2.8162   -2.4896    0.4306 H   0  0  0  0  0  0  0  0  0  0  0  0
    2.6329   -1.0726    1.4252 H   0  0  0  0  0  0  0  0  0  0  0  0
    4.9638   -3.3435    0.3112 H   0  0  0  0  0  0  0  0  0  0  0  0
    9.3029    0.4999    0.8245 H   0  0  0  0  0  0  0  0  0  0  0  0
    9.1734    2.1516    1.4220 H   0  0  0  0  0  0  0  0  0  0  0  0
    9.1355    1.8375   -0.3291 H   0  0  0  0  0  0  0  0  0  0  0  0
    6.0340    5.6505    0.5858 H   0  0  0  0  0  0  0  0  0  0  0  0
    3.2368    5.4038    0.5660 H   0  0  0  0  0  0  0  0  0  0  0  0
    2.7571    4.0443    1.6010 H   0  0  0  0  0  0  0  0  0  0  0  0
    2.7550    3.8652   -0.1641 H   0  0  0  0  0  0  0  0  0  0  0  0
    3.3959    1.2278    0.9493 H   0  0  0  0  0  0  0  0  0  0  0  0
  1  2  1  0  0  0  0
  1 20  1  0  0  0  0
  1 21  1  0  0  0  0
  1 22  1  0  0  0  0
  2  3  1  0  0  0  0
  2 23  1  0  0  0  0
  2 24  1  0  0  0  0
  3  4  1  0  0  0  0
  3 25  1  0  0  0  0
  3 26  1  0  0  0  0
  4  5  2  0  0  0  0
  4 19  1  0  0  0  0
  5  6  1  0  0  0  0
  5 27  1  0  0  0  0
  6  7  2  0  0  0  0
  6  8  1  0  0  0  0
  8  9  1  0  0  0  0
  9 10  1  0  0  0  0
  9 19  2  0  0  0  0
 10 11  1  0  0  0  0
 10 12  2  0  0  0  0
 11 28  1  0  0  0  0
 11 29  1  0  0  0  0
 11 30  1  0  0  0  0
 12 13  1  0  0  0  0
 12 17  1  0  0  0  0
 13 14  1  0  0  0  0
 14 15  2  0  0  0  0
 14 31  1  0  0  0  0
 15 16  1  0  0  0  0
 15 17  1  0  0  0  0
 16 32  1  0  0  0  0
 16 33  1  0  0  0  0
 16 34  1  0  0  0  0
 17 18  2  0  0  0  0
 18 19  1  0  0  0  0
 18 35  1  0  0  0  0
M  END
>  <Energy>
38.2837

$$$$

 OpenBabel04232614443D

 38 40  0  0  0  0  0  0  0  0999 V2000
    0.4330    2.3982   -1.2754 C   0  0  0  0  0  0  0  0  0  0  0  0
    0.7638    1.0864   -0.6621 C   0  0  0  0  0  0  0  0  0  0  0  0
    1.9963    0.6661   -0.1662 C   0  0  0  0  0  0  0  0  0  0  0  0
    3.2858    1.3469   -0.0558 C   0  0  0  0  0  0  0  0  0  0  0  0
    3.3557    2.5761   -0.0349 O   0  0  0  0  0  0  0  0  0  0  0  0
    4.4616    0.5623    0.0194 N   0  0  0  0  0  0  0  0  0  0  0  0
    5.7181    1.2281    0.3468 C   0  0  0  0  0  0  0  0  0  0  0  0
    6.5376    1.5578   -0.8981 C   0  0  0  0  0  0  0  0  0  0  0  0
    7.3100    0.3708   -1.4716 C   0  0  0  0  0  0  0  0  0  0  0  0
    6.4534   -0.8311   -1.8595 C   0  0  0  0  0  0  0  0  0  0  0  0
    5.8046   -1.5062   -0.6558 C   0  0  0  0  0  0  0  0  0  0  0  0
    4.4742   -0.8759   -0.2586 C   0  0  0  0  0  0  0  0  0  0  0  0
    1.8750   -0.6085    0.3168 O   0  0  0  0  0  0  0  0  0  0  0  0
    0.6170   -1.0371    0.0697 C   0  0  0  0  0  0  0  0  0  0  0  0
    0.1475   -2.3189    0.3409 C   0  0  0  0  0  0  0  0  0  0  0  0
   -1.1876   -2.5680    0.0147 C   0  0  0  0  0  0  0  0  0  0  0  0
   -1.9929   -1.5657   -0.5313 C   0  0  0  0  0  0  0  0  0  0  0  0
   -1.4820   -0.2840   -0.7933 C   0  0  0  0  0  0  0  0  0  0  0  0
   -0.1301   -0.0222   -0.5015 C   0  0  0  0  0  0  0  0  0  0  0  0
    1.3178    2.8868   -1.6936 H   0  0  0  0  0  0  0  0  0  0  0  0
   -0.0164    3.0651   -0.5333 H   0  0  0  0  0  0  0  0  0  0  0  0
   -0.2816    2.2693   -2.0958 H   0  0  0  0  0  0  0  0  0  0  0  0
    6.2793    0.6104    1.0566 H   0  0  0  0  0  0  0  0  0  0  0  0
    5.4984    2.1645    0.8731 H   0  0  0  0  0  0  0  0  0  0  0  0
    7.2714    2.3294   -0.6339 H   0  0  0  0  0  0  0  0  0  0  0  0
    5.8928    1.9870   -1.6744 H   0  0  0  0  0  0  0  0  0  0  0  0
    8.0736    0.0526   -0.7504 H   0  0  0  0  0  0  0  0  0  0  0  0
    7.8527    0.7109   -2.3619 H   0  0  0  0  0  0  0  0  0  0  0  0
    7.1078   -1.5635   -2.3483 H   0  0  0  0  0  0  0  0  0  0  0  0
    5.6985   -0.5428   -2.6005 H   0  0  0  0  0  0  0  0  0  0  0  0
    6.4939   -1.5306    0.1958 H   0  0  0  0  0  0  0  0  0  0  0  0
    5.6026   -2.5543   -0.9117 H   0  0  0  0  0  0  0  0  0  0  0  0
    4.1206   -1.3802    0.6489 H   0  0  0  0  0  0  0  0  0  0  0  0
    3.7601   -1.0767   -1.0652 H   0  0  0  0  0  0  0  0  0  0  0  0
    0.7908   -3.0773    0.7678 H   0  0  0  0  0  0  0  0  0  0  0  0
   -1.6025   -3.5586    0.1914 H   0  0  0  0  0  0  0  0  0  0  0  0
   -3.0333   -1.7830   -0.7646 H   0  0  0  0  0  0  0  0  0  0  0  0
   -2.1189    0.4819   -1.2239 H   0  0  0  0  0  0  0  0  0  0  0  0
  1  2  1  0  0  0  0
  1 20  1  0  0  0  0
  1 21  1  0  0  0  0
  1 22  1  0  0  0  0
  2  3  2  0  0  0  0
  2 19  1  0  0  0  0
  3  4  1  0  0  0  0
  3 13  1  0  0  0  0
  4  5  2  0  0  0  0
  4  6  1  0  0  0  0
  6  7  1  0  0  0  0
  6 12  1  0  0  0  0
  7  8  1  0  0  0  0
  7 23  1  0  0  0  0
  7 24  1  0  0  0  0
  8  9  1  0  0  0  0
  8 25  1  0  0  0  0
  8 26  1  0  0  0  0
  9 10  1  0  0  0  0
  9 27  1  0  0  0  0
  9 28  1  0  0  0  0
 10 11  1  0  0  0  0
 10 29  1  0  0  0  0
 10 30  1  0  0  0  0
 11 12  1  0  0  0  0
 11 31  1  0  0  0  0
 11 32  1  0  0  0  0
 12 33  1  0  0  0  0
 12 34  1  0  0  0  0
 13 14  1  0  0  0  0
 14 15  1  0  0  0  0
 14 19  2  0  0  0  0
 15 16  2  0  0  0  0
 15 35  1  0  0  0  0
 16 17  1  0  0  0  0
 16 36  1  0  0  0  0
 17 18  2  0  0  0  0
 17 37  1  0  0  0  0
 18 19  1  0  0  0  0
 18 38  1  0  0  0  0
M  END
>  <Energy>
26.6708

$$$$

 OpenBabel04232614443D

 37 38  0  0  0  0  0  0  0  0999 V2000
    0.8219    2.1423   -0.3792 C   0  0  0  0  0  0  0  0  0  0  0  0
    0.0716    0.8826   -0.2477 C   0  0  0  0  0  0  0  0  0  0  0  0
   -1.2429    0.5065   -0.3894 C   0  0  0  0  0  0  0  0  0  0  0  0
   -1.2491   -0.8854   -0.1153 C   0  0  0  0  0  0  0  0  0  0  0  0
   -2.3803   -1.6869   -0.1433 N   0  0  0  0  0  0  0  0  0  0  0  0
   -2.3492   -3.0383    0.1485 C   0  0  0  0  0  0  0  0  0  0  0  0
   -1.3635   -3.6856    0.4862 O   0  0  0  0  0  0  0  0  0  0  0  0
   -3.6443   -3.7743    0.0730 C   0  0  0  0  0  0  0  0  0  0  0  0
   -4.6915   -3.4149   -0.7769 C   0  0  0  0  0  0  0  0  0  0  0  0
   -5.8531   -4.2038   -0.8345 C   0  0  0  0  0  0  0  0  0  0  0  0
   -5.9967   -5.3659   -0.0540 C   0  0  0  0  0  0  0  0  0  0  0  0
   -7.2398   -6.2718   -0.1117 C   0  0  0  0  0  0  0  0  0  0  0  0
   -8.3386   -5.7535   -1.0648 C   0  0  0  0  0  0  0  0  0  0  0  0
   -6.8347   -7.6812   -0.5982 C   0  0  0  0  0  0  0  0  0  0  0  0
   -7.8709   -6.3891    1.2931 C   0  0  0  0  0  0  0  0  0  0  0  0
   -4.9286   -5.7062    0.7943 C   0  0  0  0  0  0  0  0  0  0  0  0
   -3.7731   -4.9264    0.8560 C   0  0  0  0  0  0  0  0  0  0  0  0
   -0.0130   -1.3039    0.1692 N   0  0  0  0  0  0  0  0  0  0  0  0
    0.8073   -0.2045    0.0915 O   0  0  0  0  0  0  0  0  0  0  0  0
    0.1659    2.9682   -0.6676 H   0  0  0  0  0  0  0  0  0  0  0  0
    1.6022    2.0423   -1.1406 H   0  0  0  0  0  0  0  0  0  0  0  0
    1.3028    2.4006    0.5697 H   0  0  0  0  0  0  0  0  0  0  0  0
   -2.0710    1.1444   -0.6555 H   0  0  0  0  0  0  0  0  0  0  0  0
   -3.2562   -1.2273   -0.3400 H   0  0  0  0  0  0  0  0  0  0  0  0
   -4.6177   -2.5575   -1.4382 H   0  0  0  0  0  0  0  0  0  0  0  0
   -6.6332   -3.8925   -1.5252 H   0  0  0  0  0  0  0  0  0  0  0  0
   -7.9813   -5.6993   -2.0998 H   0  0  0  0  0  0  0  0  0  0  0  0
   -8.6871   -4.7564   -0.7716 H   0  0  0  0  0  0  0  0  0  0  0  0
   -9.2118   -6.4165   -1.0598 H   0  0  0  0  0  0  0  0  0  0  0  0
   -6.4026   -7.6433   -1.6051 H   0  0  0  0  0  0  0  0  0  0  0  0
   -7.7020   -8.3510   -0.6323 H   0  0  0  0  0  0  0  0  0  0  0  0
   -6.0940   -8.1512    0.0583 H   0  0  0  0  0  0  0  0  0  0  0  0
   -8.1714   -5.4063    1.6743 H   0  0  0  0  0  0  0  0  0  0  0  0
   -7.1834   -6.8294    2.0236 H   0  0  0  0  0  0  0  0  0  0  0  0
   -8.7629   -7.0264    1.2723 H   0  0  0  0  0  0  0  0  0  0  0  0
   -4.9692   -6.6003    1.4133 H   0  0  0  0  0  0  0  0  0  0  0  0
   -2.9593   -5.2354    1.5107 H   0  0  0  0  0  0  0  0  0  0  0  0
  1  2  1  0  0  0  0
  1 20  1  0  0  0  0
  1 21  1  0  0  0  0
  1 22  1  0  0  0  0
  2  3  2  0  0  0  0
  2 19  1  0  0  0  0
  3  4  1  0  0  0  0
  3 23  1  0  0  0  0
  4  5  1  0  0  0  0
  4 18  2  0  0  0  0
  5  6  1  0  0  0  0
  5 24  1  0  0  0  0
  6  7  2  0  0  0  0
  6  8  1  0  0  0  0
  8  9  1  0  0  0  0
  8 17  2  0  0  0  0
  9 10  2  0  0  0  0
  9 25  1  0  0  0  0
 10 11  1  0  0  0  0
 10 26  1  0  0  0  0
 11 12  1  0  0  0  0
 11 16  2  0  0  0  0
 12 13  1  0  0  0  0
 12 14  1  0  0  0  0
 12 15  1  0  0  0  0
 13 27  1  0  0  0  0
 13 28  1  0  0  0  0
 13 29  1  0  0  0  0
 14 30  1  0  0  0  0
 14 31  1  0  0  0  0
 14 32  1  0  0  0  0
 15 33  1  0  0  0  0
 15 34  1  0  0  0  0
 15 35  1  0  0  0  0
 16 17  1  0  0  0  0
 16 36  1  0  0  0  0
 17 37  1  0  0  0  0
 18 19  1  0  0  0  0
M  END
>  <Energy>
21.3045

$$$$

 OpenBabel04232614443D

 28 30  0  0  0  0  0  0  0  0999 V2000
    1.7601    0.4423    1.6652 Cl  0  0  0  0  0  0  0  0  0  0  0  0
    0.1524    0.5735    1.0765 C   0  0  0  0  0  0  0  0  0  0  0  0
   -0.3052    1.4753    0.1562 C   0  0  0  0  0  0  0  0  0  0  0  0
   -1.6986    1.2891   -0.0903 C   0  0  0  0  0  0  0  0  0  0  0  0
   -2.2569    0.2536    0.6509 C   0  0  0  0  0  0  0  0  0  0  0  0
   -3.5933   -0.2470    0.7047 C   0  0  0  0  0  0  0  0  0  0  0  0
   -4.5820    0.2776   -0.0376 C   0  0  0  0  0  0  0  0  0  0  0  0
   -5.9764   -0.1894   -0.0116 C   0  0  0  0  0  0  0  0  0  0  0  0
   -6.9144    0.4128   -0.8403 C   0  0  0  0  0  0  0  0  0  0  0  0
   -8.2302   -0.0333   -0.7946 C   0  0  0  0  0  0  0  0  0  0  0  0
   -8.5800   -1.0664    0.0791 C   0  0  0  0  0  0  0  0  0  0  0  0
   -9.8996   -1.5433    0.1629 C   0  0  0  0  0  0  0  0  0  0  0  0
  -10.2207   -2.5686    1.0491 C   0  0  0  0  0  0  0  0  0  0  0  0
   -9.2266   -3.1201    1.8492 C   0  0  0  0  0  0  0  0  0  0  0  0
   -7.9142   -2.6446    1.7587 C   0  0  0  0  0  0  0  0  0  0  0  0
   -7.5652   -1.6221    0.8862 C   0  0  0  0  0  0  0  0  0  0  0  0
   -6.2900   -1.1936    0.8391 N   0  0  0  0  0  0  0  0  0  0  0  0
   -1.0410   -0.4781    1.6417 S   0  0  0  0  0  0  0  0  0  0  0  0
    0.3115    2.2281   -0.3176 H   0  0  0  0  0  0  0  0  0  0  0  0
   -2.2602    1.9000   -0.7857 H   0  0  0  0  0  0  0  0  0  0  0  0
   -3.8079   -1.0785    1.3746 H   0  0  0  0  0  0  0  0  0  0  0  0
   -4.3930    1.1045   -0.7130 H   0  0  0  0  0  0  0  0  0  0  0  0
   -6.6397    1.2183   -1.5128 H   0  0  0  0  0  0  0  0  0  0  0  0
   -8.9741    0.4301   -1.4369 H   0  0  0  0  0  0  0  0  0  0  0  0
  -10.6821   -1.1159   -0.4597 H   0  0  0  0  0  0  0  0  0  0  0  0
  -11.2422   -2.9339    1.1152 H   0  0  0  0  0  0  0  0  0  0  0  0
   -9.4659   -3.9192    2.5461 H   0  0  0  0  0  0  0  0  0  0  0  0
   -7.1429   -3.0819    2.3883 H   0  0  0  0  0  0  0  0  0  0  0  0
  1  2  1  0  0  0  0
  2  3  2  0  0  0  0
  2 18  1  0  0  0  0
  3  4  1  0  0  0  0
  3 19  1  0  0  0  0
  4  5  2  0  0  0  0
  4 20  1  0  0  0  0
  5  6  1  0  0  0  0
  5 18  1  0  0  0  0
  6  7  2  0  0  0  0
  6 21  1  0  0  0  0
  7  8  1  0  0  0  0
  7 22  1  0  0  0  0
  8  9  1  0  0  0  0
  8 17  2  0  0  0  0
  9 10  2  0  0  0  0
  9 23  1  0  0  0  0
 10 11  1  0  0  0  0
 10 24  1  0  0  0  0
 11 12  1  0  0  0  0
 11 16  2  0  0  0  0
 12 13  2  0  0  0  0
 12 25  1  0  0  0  0
 13 14  1  0  0  0  0
 13 26  1  0  0  0  0
 14 15  2  0  0  0  0
 14 27  1  0  0  0  0
 15 16  1  0  0  0  0
 15 28  1  0  0  0  0
 16 17  1  0  0  0  0
M  END
>  <Energy>
33.1285

$$$$

 OpenBabel04232614443D

 43 44  0  0  0  0  0  0  0  0999 V2000
    1.6564    0.9881   -0.3651 C   0  0  0  0  0  0  0  0  0  0  0  0
    2.9833    0.5667   -0.0701 O   0  0  0  0  0  0  0  0  0  0  0  0
    3.4813   -0.4839   -0.7935 C   0  0  0  0  0  0  0  0  0  0  0  0
    2.9683   -0.8484   -2.0427 C   0  0  0  0  0  0  0  0  0  0  0  0
    3.5336   -1.8922   -2.7832 C   0  0  0  0  0  0  0  0  0  0  0  0
    4.6348   -2.5923   -2.2999 C   0  0  0  0  0  0  0  0  0  0  0  0
    5.2519   -3.6591   -2.9889 N   0  0  0  0  0  0  0  0  0  0  0  0
    4.9445   -4.1191   -4.2577 C   0  0  0  0  0  0  0  0  0  0  0  0
    4.1128   -3.6420   -5.0250 O   0  0  0  0  0  0  0  0  0  0  0  0
    5.7620   -5.3293   -4.6823 C   0  0  0  0  0  0  0  0  0  0  0  0
    7.0962   -5.0099   -5.3767 C   0  0  0  0  0  0  0  0  0  0  0  0
    8.1591   -4.4869   -4.3995 C   0  0  0  0  0  0  0  0  0  0  0  0
    9.4864   -4.2162   -5.1059 C   0  0  0  0  0  0  0  0  0  0  0  0
    9.3063   -3.2583   -6.2789 C   0  0  0  0  0  0  0  0  0  0  0  0
    8.2648   -3.7781   -7.2648 C   0  0  0  0  0  0  0  0  0  0  0  0
    6.9308   -4.0600   -6.5748 C   0  0  0  0  0  0  0  0  0  0  0  0
    5.1549   -2.2281   -1.0529 C   0  0  0  0  0  0  0  0  0  0  0  0
    4.5894   -1.1875   -0.2925 C   0  0  0  0  0  0  0  0  0  0  0  0
    5.2516   -0.9811    0.8926 O   0  0  0  0  0  0  0  0  0  0  0  0
    4.5575   -0.2989    1.9290 C   0  0  0  0  0  0  0  0  0  0  0  0
    1.3552    1.7035    0.4058 H   0  0  0  0  0  0  0  0  0  0  0  0
    0.9553    0.1469   -0.3317 H   0  0  0  0  0  0  0  0  0  0  0  0
    1.6111    1.5045   -1.3293 H   0  0  0  0  0  0  0  0  0  0  0  0
    2.1296   -0.3247   -2.4918 H   0  0  0  0  0  0  0  0  0  0  0  0
    3.0825   -2.1270   -3.7420 H   0  0  0  0  0  0  0  0  0  0  0  0
    6.0122   -4.1192   -2.5044 H   0  0  0  0  0  0  0  0  0  0  0  0
    5.1304   -5.9125   -5.3654 H   0  0  0  0  0  0  0  0  0  0  0  0
    5.9317   -5.9752   -3.8122 H   0  0  0  0  0  0  0  0  0  0  0  0
    7.4706   -5.9658   -5.7716 H   0  0  0  0  0  0  0  0  0  0  0  0
    8.3203   -5.2180   -3.5985 H   0  0  0  0  0  0  0  0  0  0  0  0
    7.8201   -3.5587   -3.9266 H   0  0  0  0  0  0  0  0  0  0  0  0
    9.9103   -5.1616   -5.4666 H   0  0  0  0  0  0  0  0  0  0  0  0
   10.2037   -3.7959   -4.3922 H   0  0  0  0  0  0  0  0  0  0  0  0
   10.2639   -3.1164   -6.7919 H   0  0  0  0  0  0  0  0  0  0  0  0
    8.9954   -2.2754   -5.9030 H   0  0  0  0  0  0  0  0  0  0  0  0
    8.6343   -4.6964   -7.7376 H   0  0  0  0  0  0  0  0  0  0  0  0
    8.1171   -3.0442   -8.0652 H   0  0  0  0  0  0  0  0  0  0  0  0
    6.2328   -4.4927   -7.3014 H   0  0  0  0  0  0  0  0  0  0  0  0
    6.5025   -3.1050   -6.2476 H   0  0  0  0  0  0  0  0  0  0  0  0
    6.0180   -2.7495   -0.6432 H   0  0  0  0  0  0  0  0  0  0  0  0
    5.1107   -0.4622    2.8592 H   0  0  0  0  0  0  0  0  0  0  0  0
    3.5487   -0.6992    2.0770 H   0  0  0  0  0  0  0  0  0  0  0  0
    4.5466    0.7802    1.7486 H   0  0  0  0  0  0  0  0  0  0  0  0
  1  2  1  0  0  0  0
  1 21  1  0  0  0  0
  1 22  1  0  0  0  0
  1 23  1  0  0  0  0
  2  3  1  0  0  0  0
  3  4  1  0  0  0  0
  3 18  2  0  0  0  0
  4  5  2  0  0  0  0
  4 24  1  0  0  0  0
  5  6  1  0  0  0  0
  5 25  1  0  0  0  0
  6  7  1  0  0  0  0
  6 17  2  0  0  0  0
  7  8  1  0  0  0  0
  7 26  1  0  0  0  0
  8  9  2  0  0  0  0
  8 10  1  0  0  0  0
 10 11  1  0  0  0  0
 10 27  1  0  0  0  0
 10 28  1  0  0  0  0
 11 12  1  0  0  0  0
 11 16  1  0  0  0  0
 11 29  1  0  0  0  0
 12 13  1  0  0  0  0
 12 30  1  0  0  0  0
 12 31  1  0  0  0  0
 13 14  1  0  0  0  0
 13 32  1  0  0  0  0
 13 33  1  0  0  0  0
 14 15  1  0  0  0  0
 14 34  1  0  0  0  0
 14 35  1  0  0  0  0
 15 16  1  0  0  0  0
 15 36  1  0  0  0  0
 15 37  1  0  0  0  0
 16 38  1  0  0  0  0
 16 39  1  0  0  0  0
 17 18  1  0  0  0  0
 17 40  1  0  0  0  0
 18 19  1  0  0  0  0
 19 20  1  0  0  0  0
 20 41  1  0  0  0  0
 20 42  1  0  0  0  0
 20 43  1  0  0  0  0
M  END
>  <Energy>
26.2663

$$$$

 OpenBabel04232614443D

 34 36  0  0  0  0  0  0  0  0999 V2000
    0.9410   -0.2039    0.0681 C   0  0  0  0  0  0  0  0  0  0  0  0
    2.4386   -0.0861    0.0689 C   0  0  0  0  0  0  0  0  0  0  0  0
    3.0476    1.1762    0.0932 C   0  0  0  0  0  0  0  0  0  0  0  0
    4.4431    1.3125    0.0953 C   0  0  0  0  0  0  0  0  0  0  0  0
    5.2414    0.1554    0.0686 C   0  0  0  0  0  0  0  0  0  0  0  0
    6.6427   -0.1130    0.0592 C   0  0  0  0  0  0  0  0  0  0  0  0
    7.7444    0.8842    0.0749 C   0  0  0  0  0  0  0  0  0  0  0  0
    6.7724   -1.4964    0.0227 C   0  0  0  0  0  0  0  0  0  0  0  0
    7.9549   -2.3436   -0.0084 C   0  0  0  0  0  0  0  0  0  0  0  0
    9.0889   -1.8794    0.0881 O   0  0  0  0  0  0  0  0  0  0  0  0
    7.6651   -3.6843   -0.1983 N   0  0  0  0  0  0  0  0  0  0  0  0
    8.5866   -4.7447   -0.3260 C   0  0  0  0  0  0  0  0  0  0  0  0
    9.9448   -4.6430   -0.0296 C   0  0  0  0  0  0  0  0  0  0  0  0
   10.7880   -5.7353   -0.2358 C   0  0  0  0  0  0  0  0  0  0  0  0
   10.2425   -6.9071   -0.7310 C   0  0  0  0  0  0  0  0  0  0  0  0
    8.9300   -7.0614   -1.0028 N   0  0  0  0  0  0  0  0  0  0  0  0
    8.1374   -5.9821   -0.7876 C   0  0  0  0  0  0  0  0  0  0  0  0
    5.5312   -2.0826    0.0060 O   0  0  0  0  0  0  0  0  0  0  0  0
    4.6103   -1.0805    0.0412 C   0  0  0  0  0  0  0  0  0  0  0  0
    3.2258   -1.2505    0.0456 C   0  0  0  0  0  0  0  0  0  0  0  0
    0.4612    0.7807    0.0645 H   0  0  0  0  0  0  0  0  0  0  0  0
    0.6040   -0.7381    0.9620 H   0  0  0  0  0  0  0  0  0  0  0  0
    0.6057   -0.7415   -0.8245 H   0  0  0  0  0  0  0  0  0  0  0  0
    2.4377    2.0779    0.1100 H   0  0  0  0  0  0  0  0  0  0  0  0
    4.8928    2.3009    0.1147 H   0  0  0  0  0  0  0  0  0  0  0  0
    7.3600    1.9068    0.0105 H   0  0  0  0  0  0  0  0  0  0  0  0
    8.4164    0.7303   -0.7754 H   0  0  0  0  0  0  0  0  0  0  0  0
    8.3235    0.8016    0.9999 H   0  0  0  0  0  0  0  0  0  0  0  0
    6.6839   -3.8918   -0.3533 H   0  0  0  0  0  0  0  0  0  0  0  0
   10.3783   -3.7332    0.3726 H   0  0  0  0  0  0  0  0  0  0  0  0
   11.8477   -5.6658   -0.0165 H   0  0  0  0  0  0  0  0  0  0  0  0
   10.8657   -7.7752   -0.9263 H   0  0  0  0  0  0  0  0  0  0  0  0
    7.0922   -6.1484   -1.0319 H   0  0  0  0  0  0  0  0  0  0  0  0
    2.7862   -2.2410    0.0294 H   0  0  0  0  0  0  0  0  0  0  0  0
  1  2  1  0  0  0  0
  1 21  1  0  0  0  0
  1 22  1  0  0  0  0
  1 23  1  0  0  0  0
  2  3  1  0  0  0  0
  2 20  2  0  0  0  0
  3  4  2  0  0  0  0
  3 24  1  0  0  0  0
  4  5  1  0  0  0  0
  4 25  1  0  0  0  0
  5  6  1  0  0  0  0
  5 19  2  0  0  0  0
  6  7  1  0  0  0  0
  6  8  2  0  0  0  0
  7 26  1  0  0  0  0
  7 27  1  0  0  0  0
  7 28  1  0  0  0  0
  8  9  1  0  0  0  0
  8 18  1  0  0  0  0
  9 10  2  0  0  0  0
  9 11  1  0  0  0  0
 11 12  1  0  0  0  0
 11 29  1  0  0  0  0
 12 13  1  0  0  0  0
 12 17  2  0  0  0  0
 13 14  2  0  0  0  0
 13 30  1  0  0  0  0
 14 15  1  0  0  0  0
 14 31  1  0  0  0  0
 15 16  2  0  0  0  0
 15 32  1  0  0  0  0
 16 17  1  0  0  0  0
 17 33  1  0  0  0  0
 18 19  1  0  0  0  0
 19 20  1  0  0  0  0
 20 34  1  0  0  0  0
M  END
>  <Energy>
43.0102

$$$$

 OpenBabel04232614443D

 33 34  0  0  0  0  0  0  0  0999 V2000
    2.2295    1.0053    1.1254 C   0  0  0  0  0  0  0  0  0  0  0  0
    1.0877    0.2908    0.4682 C   0  0  0  0  0  0  0  0  0  0  0  0
    0.0710    1.0008   -0.1412 C   0  0  0  0  0  0  0  0  0  0  0  0
   -0.9404    0.2623   -0.7194 C   0  0  0  0  0  0  0  0  0  0  0  0
   -2.0927    0.9299   -1.4065 C   0  0  0  0  0  0  0  0  0  0  0  0
   -0.9475   -1.0842   -0.6970 N   0  0  0  0  0  0  0  0  0  0  0  0
    0.0857   -1.6966   -0.0907 C   0  0  0  0  0  0  0  0  0  0  0  0
   -0.0044   -3.4730   -0.0295 S   0  0  0  0  0  0  0  0  0  0  0  0
    1.6626   -3.9560   -0.0313 C   0  0  0  0  0  0  0  0  0  0  0  0
    1.9677   -5.2604    0.0062 C   0  0  0  0  0  0  0  0  0  0  0  0
    3.3785   -5.7262    0.0476 C   0  0  0  0  0  0  0  0  0  0  0  0
    4.3047   -5.0355   -0.3617 O   0  0  0  0  0  0  0  0  0  0  0  0
    3.6223   -7.0946    0.5848 C   0  0  0  0  0  0  0  0  0  0  0  0
    4.7186   -7.8277    0.1144 C   0  0  0  0  0  0  0  0  0  0  0  0
    4.9758   -9.1065    0.6201 C   0  0  0  0  0  0  0  0  0  0  0  0
    4.1475   -9.6508    1.6009 C   0  0  0  0  0  0  0  0  0  0  0  0
    3.0617   -8.9207    2.0820 C   0  0  0  0  0  0  0  0  0  0  0  0
    2.8006   -7.6450    1.5793 C   0  0  0  0  0  0  0  0  0  0  0  0
    1.1082   -1.0590    0.5057 N   0  0  0  0  0  0  0  0  0  0  0  0
    2.1286    2.0927    1.0466 H   0  0  0  0  0  0  0  0  0  0  0  0
    3.1722    0.7168    0.6494 H   0  0  0  0  0  0  0  0  0  0  0  0
    2.2714    0.7447    2.1876 H   0  0  0  0  0  0  0  0  0  0  0  0
    0.0674    2.0834   -0.1646 H   0  0  0  0  0  0  0  0  0  0  0  0
   -2.0008    2.0206   -1.3873 H   0  0  0  0  0  0  0  0  0  0  0  0
   -3.0307    0.6581   -0.9123 H   0  0  0  0  0  0  0  0  0  0  0  0
   -2.1368    0.6106   -2.4524 H   0  0  0  0  0  0  0  0  0  0  0  0
    2.4450   -3.2002   -0.0410 H   0  0  0  0  0  0  0  0  0  0  0  0
    1.1944   -6.0213    0.0165 H   0  0  0  0  0  0  0  0  0  0  0  0
    5.3746   -7.4083   -0.6452 H   0  0  0  0  0  0  0  0  0  0  0  0
    5.8268   -9.6753    0.2525 H   0  0  0  0  0  0  0  0  0  0  0  0
    4.3536  -10.6412    1.9999 H   0  0  0  0  0  0  0  0  0  0  0  0
    2.4245   -9.3402    2.8571 H   0  0  0  0  0  0  0  0  0  0  0  0
    1.9655   -7.0863    1.9944 H   0  0  0  0  0  0  0  0  0  0  0  0
  1  2  1  0  0  0  0
  1 20  1  0  0  0  0
  1 21  1  0  0  0  0
  1 22  1  0  0  0  0
  2  3  1  0  0  0  0
  2 19  2  0  0  0  0
  3  4  2  0  0  0  0
  3 23  1  0  0  0  0
  4  5  1  0  0  0  0
  4  6  1  0  0  0  0
  5 24  1  0  0  0  0
  5 25  1  0  0  0  0
  5 26  1  0  0  0  0
  6  7  2  0  0  0  0
  7  8  1  0  0  0  0
  7 19  1  0  0  0  0
  8  9  1  0  0  0  0
  9 10  2  0  0  0  0
  9 27  1  0  0  0  0
 10 11  1  0  0  0  0
 10 28  1  0  0  0  0
 11 12  2  0  0  0  0
 11 13  1  0  0  0  0
 13 14  1  0  0  0  0
 13 18  2  0  0  0  0
 14 15  2  0  0  0  0
 14 29  1  0  0  0  0
 15 16  1  0  0  0  0
 15 30  1  0  0  0  0
 16 17  2  0  0  0  0
 16 31  1  0  0  0  0
 17 18  1  0  0  0  0
 17 32  1  0  0  0  0
 18 33  1  0  0  0  0
M  END
>  <Energy>
28.164

$$$$

 OpenBabel04232614443D

 28 30  0  0  0  0  0  0  0  0999 V2000
    1.0088    0.1555    0.3447 C   0  0  0  0  0  0  0  0  0  0  0  0
    2.3743    0.0417   -0.0457 O   0  0  0  0  0  0  0  0  0  0  0  0
    2.9368    1.1745   -0.5625 C   0  0  0  0  0  0  0  0  0  0  0  0
    2.5541    2.4716   -0.2548 C   0  0  0  0  0  0  0  0  0  0  0  0
    3.2204    3.5474   -0.8466 C   0  0  0  0  0  0  0  0  0  0  0  0
    4.2654    3.3665   -1.7402 C   0  0  0  0  0  0  0  0  0  0  0  0
    4.8356    4.4576   -2.2685 N   0  0  0  0  0  0  0  0  0  0  0  0
    5.8438    4.3368   -3.1396 C   0  0  0  0  0  0  0  0  0  0  0  0
    6.3901    5.4990   -3.6638 C   0  0  0  0  0  0  0  0  0  0  0  0
    7.4395    5.4591   -4.5776 C   0  0  0  0  0  0  0  0  0  0  0  0
    8.0861    6.9235   -5.2053 Cl  0  0  0  0  0  0  0  0  0  0  0  0
    7.9653    4.2422   -4.9847 C   0  0  0  0  0  0  0  0  0  0  0  0
    7.4299    3.0629   -4.4689 C   0  0  0  0  0  0  0  0  0  0  0  0
    6.3587    3.0903   -3.5374 C   0  0  0  0  0  0  0  0  0  0  0  0
    5.7516    1.9432   -2.9675 C   0  0  0  0  0  0  0  0  0  0  0  0
    6.2294    0.6379   -3.3343 C   0  0  0  0  0  0  0  0  0  0  0  0
    6.6209   -0.4105   -3.6395 N   0  0  0  0  0  0  0  0  0  0  0  0
    4.6791    2.0623   -2.0496 C   0  0  0  0  0  0  0  0  0  0  0  0
    4.0047    0.9719   -1.4373 C   0  0  0  0  0  0  0  0  0  0  0  0
    0.6612   -0.8387    0.6411 H   0  0  0  0  0  0  0  0  0  0  0  0
    0.3903    0.4929   -0.4943 H   0  0  0  0  0  0  0  0  0  0  0  0
    0.8912    0.8146    1.2102 H   0  0  0  0  0  0  0  0  0  0  0  0
    1.7576    2.6858    0.4498 H   0  0  0  0  0  0  0  0  0  0  0  0
    2.9126    4.5621   -0.5987 H   0  0  0  0  0  0  0  0  0  0  0  0
    5.9819    6.4569   -3.3498 H   0  0  0  0  0  0  0  0  0  0  0  0
    8.7848    4.2015   -5.6978 H   0  0  0  0  0  0  0  0  0  0  0  0
    7.8596    2.1197   -4.8053 H   0  0  0  0  0  0  0  0  0  0  0  0
    4.2984   -0.0563   -1.6490 H   0  0  0  0  0  0  0  0  0  0  0  0
  1  2  1  0  0  0  0
  1 20  1  0  0  0  0
  1 21  1  0  0  0  0
  1 22  1  0  0  0  0
  2  3  1  0  0  0  0
  3  4  1  0  0  0  0
  3 19  2  0  0  0  0
  4  5  2  0  0  0  0
  4 23  1  0  0  0  0
  5  6  1  0  0  0  0
  5 24  1  0  0  0  0
  6  7  1  0  0  0  0
  6 18  2  0  0  0  0
  7  8  2  0  0  0  0
  8  9  1  0  0  0  0
  8 14  1  0  0  0  0
  9 10  2  0  0  0  0
  9 25  1  0  0  0  0
 10 11  1  0  0  0  0
 10 12  1  0  0  0  0
 12 13  2  0  0  0  0
 12 26  1  0  0  0  0
 13 14  1  0  0  0  0
 13 27  1  0  0  0  0
 14 15  2  0  0  0  0
 15 16  1  0  0  0  0
 15 18  1  0  0  0  0
 16 17  3  0  0  0  0
 18 19  1  0  0  0  0
 19 28  1  0  0  0  0
M  END
>  <Energy>
37.0569

$$$$

 OpenBabel04232614443D

 32 33  0  0  0  0  0  0  0  0999 V2000
    2.4268   -0.0515    0.1201 C   0  0  0  0  0  0  0  0  0  0  0  0
    0.9285   -0.0056    0.1124 C   0  0  0  0  0  0  0  0  0  0  0  0
    0.2390    1.2094    0.1464 C   0  0  0  0  0  0  0  0  0  0  0  0
   -1.1564    1.2255    0.1326 C   0  0  0  0  0  0  0  0  0  0  0  0
   -1.8769    0.0287    0.0848 C   0  0  0  0  0  0  0  0  0  0  0  0
   -1.1985   -1.1895    0.0524 C   0  0  0  0  0  0  0  0  0  0  0  0
   -1.7604   -2.4337    0.0108 O   0  0  0  0  0  0  0  0  0  0  0  0
   -3.1702   -2.4960   -0.0209 C   0  0  0  0  0  0  0  0  0  0  0  0
   -3.5944   -3.9550   -0.0771 C   0  0  0  0  0  0  0  0  0  0  0  0
   -3.7291   -4.6214   -1.0931 O   0  0  0  0  0  0  0  0  0  0  0  0
   -3.8541   -4.3870    1.2283 O   0  0  0  0  0  0  0  0  0  0  0  0
   -5.0982   -4.9930    1.4794 C   0  0  0  0  0  0  0  0  0  0  0  0
   -6.1688   -4.9433    0.5830 C   0  0  0  0  0  0  0  0  0  0  0  0
   -7.4181   -5.4298    0.9678 C   0  0  0  0  0  0  0  0  0  0  0  0
   -7.5904   -5.9535    2.2459 C   0  0  0  0  0  0  0  0  0  0  0  0
   -9.1443   -6.5145    2.7260 Cl  0  0  0  0  0  0  0  0  0  0  0  0
   -6.5215   -6.0134    3.1415 C   0  0  0  0  0  0  0  0  0  0  0  0
   -5.2693   -5.5310    2.7561 C   0  0  0  0  0  0  0  0  0  0  0  0
    0.1984   -1.1985    0.0648 C   0  0  0  0  0  0  0  0  0  0  0  0
    2.8587    0.9524    0.1795 H   0  0  0  0  0  0  0  0  0  0  0  0
    2.7933   -0.5231   -0.7974 H   0  0  0  0  0  0  0  0  0  0  0  0
    2.7818   -0.6220    0.9845 H   0  0  0  0  0  0  0  0  0  0  0  0
    0.7825    2.1504    0.1834 H   0  0  0  0  0  0  0  0  0  0  0  0
   -1.6838    2.1763    0.1585 H   0  0  0  0  0  0  0  0  0  0  0  0
   -2.9598    0.0891    0.0738 H   0  0  0  0  0  0  0  0  0  0  0  0
   -3.5838   -2.0070   -0.9116 H   0  0  0  0  0  0  0  0  0  0  0  0
   -3.6160   -2.0343    0.8695 H   0  0  0  0  0  0  0  0  0  0  0  0
   -6.0686   -4.5231   -0.4117 H   0  0  0  0  0  0  0  0  0  0  0  0
   -8.2469   -5.3787    0.2695 H   0  0  0  0  0  0  0  0  0  0  0  0
   -6.6628   -6.4189    4.1393 H   0  0  0  0  0  0  0  0  0  0  0  0
   -4.4403   -5.5525    3.4611 H   0  0  0  0  0  0  0  0  0  0  0  0
    0.7191   -2.1535    0.0353 H   0  0  0  0  0  0  0  0  0  0  0  0
  1  2  1  0  0  0  0
  1 20  1  0  0  0  0
  1 21  1  0  0  0  0
  1 22  1  0  0  0  0
  2  3  1  0  0  0  0
  2 19  2  0  0  0  0
  3  4  2  0  0  0  0
  3 23  1  0  0  0  0
  4  5  1  0  0  0  0
  4 24  1  0  0  0  0
  5  6  2  0  0  0  0
  5 25  1  0  0  0  0
  6  7  1  0  0  0  0
  6 19  1  0  0  0  0
  7  8  1  0  0  0  0
  8  9  1  0  0  0  0
  8 26  1  0  0  0  0
  8 27  1  0  0  0  0
  9 10  2  0  0  0  0
  9 11  1  0  0  0  0
 11 12  1  0  0  0  0
 12 13  1  0  0  0  0
 12 18  2  0  0  0  0
 13 14  2  0  0  0  0
 13 28  1  0  0  0  0
 14 15  1  0  0  0  0
 14 29  1  0  0  0  0
 15 16  1  0  0  0  0
 15 17  2  0  0  0  0
 17 18  1  0  0  0  0
 17 30  1  0  0  0  0
 18 31  1  0  0  0  0
 19 32  1  0  0  0  0
M  END
>  <Energy>
76.8664

$$$$

 OpenBabel04232614443D

 32 34  0  0  0  0  0  0  0  0999 V2000
    2.1309    1.7734   -0.1344 C   0  0  0  0  0  0  0  0  0  0  0  0
    2.7156    0.0625   -0.1438 S   0  0  0  0  0  0  0  0  0  0  0  0
    3.2801   -0.0684   -1.8243 C   0  0  0  0  0  0  0  0  0  0  0  0
    3.4798    1.0525   -2.5293 N   0  0  0  0  0  0  0  0  0  0  0  0
    3.9740    0.9237   -3.7693 C   0  0  0  0  0  0  0  0  0  0  0  0
    4.2105    2.0827   -4.5272 N   0  0  0  0  0  0  0  0  0  0  0  0
    3.5545    3.3132   -4.0902 C   0  0  0  0  0  0  0  0  0  0  0  0
    4.1937    4.1232   -3.0144 C   0  0  0  0  0  0  0  0  0  0  0  0
    5.2544    3.9394   -2.1502 C   0  0  0  0  0  0  0  0  0  0  0  0
    5.3275    5.1051   -1.3471 C   0  0  0  0  0  0  0  0  0  0  0  0
    4.3102    5.9266   -1.7715 C   0  0  0  0  0  0  0  0  0  0  0  0
    3.6209    5.3440   -2.7823 O   0  0  0  0  0  0  0  0  0  0  0  0
    4.2551   -0.3337   -4.3312 C   0  0  0  0  0  0  0  0  0  0  0  0
    4.7449   -0.5470   -5.6451 C   0  0  0  0  0  0  0  0  0  0  0  0
    4.9375   -1.8366   -6.1359 C   0  0  0  0  0  0  0  0  0  0  0  0
    4.6451   -2.9239   -5.3242 C   0  0  0  0  0  0  0  0  0  0  0  0
    4.1718   -2.7121   -4.0265 C   0  0  0  0  0  0  0  0  0  0  0  0
    3.9724   -1.4348   -3.5153 C   0  0  0  0  0  0  0  0  0  0  0  0
    3.5078   -1.3091   -2.2716 N   0  0  0  0  0  0  0  0  0  0  0  0
    1.7147    1.9984    0.8515 H   0  0  0  0  0  0  0  0  0  0  0  0
    1.3440    1.9164   -0.8800 H   0  0  0  0  0  0  0  0  0  0  0  0
    2.9510    2.4711   -0.3228 H   0  0  0  0  0  0  0  0  0  0  0  0
    5.2041    2.2001   -4.6958 H   0  0  0  0  0  0  0  0  0  0  0  0
    2.5078    3.1147   -3.8241 H   0  0  0  0  0  0  0  0  0  0  0  0
    3.5053    3.9570   -4.9787 H   0  0  0  0  0  0  0  0  0  0  0  0
    5.8848    3.0631   -2.0949 H   0  0  0  0  0  0  0  0  0  0  0  0
    6.0280    5.3176   -0.5534 H   0  0  0  0  0  0  0  0  0  0  0  0
    3.9609    6.9047   -1.4699 H   0  0  0  0  0  0  0  0  0  0  0  0
    4.9513    0.2997   -6.2961 H   0  0  0  0  0  0  0  0  0  0  0  0
    5.2996   -1.9897   -7.1494 H   0  0  0  0  0  0  0  0  0  0  0  0
    4.7752   -3.9373   -5.6954 H   0  0  0  0  0  0  0  0  0  0  0  0
    3.9388   -3.5704   -3.3992 H   0  0  0  0  0  0  0  0  0  0  0  0
  1  2  1  0  0  0  0
  1 20  1  0  0  0  0
  1 21  1  0  0  0  0
  1 22  1  0  0  0  0
  2  3  1  0  0  0  0
  3  4  1  0  0  0  0
  3 19  2  0  0  0  0
  4  5  2  0  0  0  0
  5  6  1  0  0  0  0
  5 13  1  0  0  0  0
  6  7  1  0  0  0  0
  6 23  1  0  0  0  0
  7  8  1  0  0  0  0
  7 24  1  0  0  0  0
  7 25  1  0  0  0  0
  8  9  2  0  0  0  0
  8 12  1  0  0  0  0
  9 10  1  0  0  0  0
  9 26  1  0  0  0  0
 10 11  2  0  0  0  0
 10 27  1  0  0  0  0
 11 12  1  0  0  0  0
 11 28  1  0  0  0  0
 13 14  1  0  0  0  0
 13 18  2  0  0  0  0
 14 15  2  0  0  0  0
 14 29  1  0  0  0  0
 15 16  1  0  0  0  0
 15 30  1  0  0  0  0
 16 17  2  0  0  0  0
 16 31  1  0  0  0  0
 17 18  1  0  0  0  0
 17 32  1  0  0  0  0
 18 19  1  0  0  0  0
M  END
>  <Energy>
-37.4465

$$$$

 OpenBabel04232614443D

 24 26  0  0  0  0  0  0  0  0999 V2000
    1.3182    1.6129   -0.1918 Cl  0  0  0  0  0  0  0  0  0  0  0  0
   -0.1371    0.6936   -0.0544 C   0  0  0  0  0  0  0  0  0  0  0  0
   -1.1011    0.8406   -1.0533 C   0  0  0  0  0  0  0  0  0  0  0  0
   -2.2996    0.1219   -0.9846 C   0  0  0  0  0  0  0  0  0  0  0  0
   -2.5534   -0.7520    0.0826 C   0  0  0  0  0  0  0  0  0  0  0  0
   -3.8104   -1.4848    0.1317 C   0  0  0  0  0  0  0  0  0  0  0  0
   -4.2119   -2.3528    1.1239 C   0  0  0  0  0  0  0  0  0  0  0  0
   -5.4437   -2.8033    0.7355 N   0  0  0  0  0  0  0  0  0  0  0  0
   -6.2934   -3.7013    1.3638 C   0  0  0  0  0  0  0  0  0  0  0  0
   -7.4630   -4.0050    0.7859 C   0  0  0  0  0  0  0  0  0  0  0  0
   -7.7213   -3.3127   -0.5103 C   0  0  0  0  0  0  0  0  0  0  0  0
   -6.9385   -2.4676   -1.1076 N   0  0  0  0  0  0  0  0  0  0  0  0
   -5.7571   -2.1946   -0.4762 C   0  0  0  0  0  0  0  0  0  0  0  0
   -4.7773   -1.3930   -0.8449 N   0  0  0  0  0  0  0  0  0  0  0  0
   -1.5759   -0.8951    1.0772 C   0  0  0  0  0  0  0  0  0  0  0  0
   -0.3747   -0.1787    1.0112 C   0  0  0  0  0  0  0  0  0  0  0  0
    0.7708   -0.4247    2.2831 Cl  0  0  0  0  0  0  0  0  0  0  0  0
   -0.9299    1.5127   -1.8910 H   0  0  0  0  0  0  0  0  0  0  0  0
   -3.0404    0.2487   -1.7744 H   0  0  0  0  0  0  0  0  0  0  0  0
   -3.7512   -2.6880    2.0407 H   0  0  0  0  0  0  0  0  0  0  0  0
   -5.9680   -4.1240    2.3054 H   0  0  0  0  0  0  0  0  0  0  0  0
   -8.1938   -4.6897    1.1895 H   0  0  0  0  0  0  0  0  0  0  0  0
   -8.6839   -3.5669   -0.9854 H   0  0  0  0  0  0  0  0  0  0  0  0
   -1.7345   -1.5668    1.9160 H   0  0  0  0  0  0  0  0  0  0  0  0
  1  2  1  0  0  0  0
  2  3  1  0  0  0  0
  2 16  2  0  0  0  0
  3  4  2  0  0  0  0
  3 18  1  0  0  0  0
  4  5  1  0  0  0  0
  4 19  1  0  0  0  0
  5  6  1  0  0  0  0
  5 15  2  0  0  0  0
  6  7  2  0  0  0  0
  6 14  1  0  0  0  0
  7  8  1  0  0  0  0
  7 20  1  0  0  0  0
  8  9  1  0  0  0  0
  8 13  1  0  0  0  0
  9 10  2  0  0  0  0
  9 21  1  0  0  0  0
 10 11  1  0  0  0  0
 10 22  1  0  0  0  0
 11 12  2  0  0  0  0
 11 23  1  0  0  0  0
 12 13  1  0  0  0  0
 13 14  2  0  0  0  0
 15 16  1  0  0  0  0
 15 24  1  0  0  0  0
 16 17  1  0  0  0  0
M  END
>  <Energy>
42.1243

$$$$

 OpenBabel04232614443D

 29 31  0  0  0  0  0  0  0  0999 V2000
    0.9597   -0.1948   -0.0577 C   0  0  0  0  0  0  0  0  0  0  0  0
    2.3886    0.0325   -0.0654 N   0  0  0  0  0  0  0  0  0  0  0  0
    3.0964    1.2707   -0.1896 C   0  0  0  0  0  0  0  0  0  0  0  0
    2.3944    2.7652   -0.4398 S   0  0  0  0  0  0  0  0  0  0  0  0
    4.4952    0.9203   -0.1157 N   0  0  0  0  0  0  0  0  0  0  0  0
    5.6236    1.6806   -0.2483 N   0  0  0  0  0  0  0  0  0  0  0  0
    5.6140    2.8626    0.2808 C   0  0  0  0  0  0  0  0  0  0  0  0
    6.7378    3.7607    0.1524 C   0  0  0  0  0  0  0  0  0  0  0  0
    7.9870    3.5460   -0.3940 C   0  0  0  0  0  0  0  0  0  0  0  0
    8.8212    4.7018   -0.3056 C   0  0  0  0  0  0  0  0  0  0  0  0
    8.1735    5.7622    0.2887 C   0  0  0  0  0  0  0  0  0  0  0  0
    6.5780    5.3588    0.7491 S   0  0  0  0  0  0  0  0  0  0  0  0
    4.6082   -0.4781   -0.0884 C   0  0  0  0  0  0  0  0  0  0  0  0
    5.7312   -1.2827   -0.0923 C   0  0  0  0  0  0  0  0  0  0  0  0
    5.5335   -2.6668   -0.0534 C   0  0  0  0  0  0  0  0  0  0  0  0
    4.2354   -3.2130   -0.0057 C   0  0  0  0  0  0  0  0  0  0  0  0
    3.1087   -2.3849    0.0032 C   0  0  0  0  0  0  0  0  0  0  0  0
    3.3227   -1.0206   -0.0389 C   0  0  0  0  0  0  0  0  0  0  0  0
    0.4029    0.7435   -0.0254 H   0  0  0  0  0  0  0  0  0  0  0  0
    0.6957   -0.7828    0.8265 H   0  0  0  0  0  0  0  0  0  0  0  0
    0.6789   -0.7414   -0.9632 H   0  0  0  0  0  0  0  0  0  0  0  0
    4.7670    3.2276    0.8837 H   0  0  0  0  0  0  0  0  0  0  0  0
    8.2936    2.6012   -0.8273 H   0  0  0  0  0  0  0  0  0  0  0  0
    9.8430    4.7542   -0.6618 H   0  0  0  0  0  0  0  0  0  0  0  0
    8.5592    6.7543    0.4785 H   0  0  0  0  0  0  0  0  0  0  0  0
    6.7248   -0.8542   -0.1298 H   0  0  0  0  0  0  0  0  0  0  0  0
    6.3939   -3.3333   -0.0614 H   0  0  0  0  0  0  0  0  0  0  0  0
    4.1092   -4.2940    0.0205 H   0  0  0  0  0  0  0  0  0  0  0  0
    2.1136   -2.8102    0.0328 H   0  0  0  0  0  0  0  0  0  0  0  0
  1  2  1  0  0  0  0
  1 19  1  0  0  0  0
  1 20  1  0  0  0  0
  1 21  1  0  0  0  0
  2  3  1  0  0  0  0
  2 18  1  0  0  0  0
  3  4  2  0  0  0  0
  3  5  1  0  0  0  0
  5  6  1  0  0  0  0
  5 13  1  0  0  0  0
  6  7  2  0  0  0  0
  7  8  1  0  0  0  0
  7 22  1  0  0  0  0
  8  9  2  0  0  0  0
  8 12  1  0  0  0  0
  9 10  1  0  0  0  0
  9 23  1  0  0  0  0
 10 11  2  0  0  0  0
 10 24  1  0  0  0  0
 11 12  1  0  0  0  0
 11 25  1  0  0  0  0
 13 14  1  0  0  0  0
 13 18  2  0  0  0  0
 14 15  2  0  0  0  0
 14 26  1  0  0  0  0
 15 16  1  0  0  0  0
 15 27  1  0  0  0  0
 16 17  2  0  0  0  0
 16 28  1  0  0  0  0
 17 18  1  0  0  0  0
 17 29  1  0  0  0  0
M  END
>  <Energy>
78.0626

$$$$

 OpenBabel04232614443D

 29 31  0  0  0  0  0  0  0  0999 V2000
    1.3933    0.2703    0.8519 C   0  0  0  0  0  0  0  0  0  0  0  0
    2.4872   -0.1207    0.0300 O   0  0  0  0  0  0  0  0  0  0  0  0
    3.0449    0.8564   -0.7475 C   0  0  0  0  0  0  0  0  0  0  0  0
    2.6367    2.1878   -0.7978 C   0  0  0  0  0  0  0  0  0  0  0  0
    3.2880    3.0956   -1.6401 C   0  0  0  0  0  0  0  0  0  0  0  0
    4.3442    2.6873   -2.4621 C   0  0  0  0  0  0  0  0  0  0  0  0
    5.0248    3.6076   -3.3601 C   0  0  0  0  0  0  0  0  0  0  0  0
    6.3565    3.4548   -3.6955 N   0  0  0  0  0  0  0  0  0  0  0  0
    6.6350    4.4481   -4.5140 C   0  0  0  0  0  0  0  0  0  0  0  0
    7.8483    4.8056   -5.1688 C   0  0  0  0  0  0  0  0  0  0  0  0
    7.8875    5.8919   -5.9657 C   0  0  0  0  0  0  0  0  0  0  0  0
    6.7119    6.7186   -6.1778 C   0  0  0  0  0  0  0  0  0  0  0  0
    5.5603    6.3849   -5.5699 C   0  0  0  0  0  0  0  0  0  0  0  0
    5.5209    5.2559   -4.7455 N   0  0  0  0  0  0  0  0  0  0  0  0
    4.4961    4.6946   -4.0226 C   0  0  0  0  0  0  0  0  0  0  0  0
    2.9261    5.3589   -4.1156 Cl  0  0  0  0  0  0  0  0  0  0  0  0
    4.7657    1.3534   -2.3877 C   0  0  0  0  0  0  0  0  0  0  0  0
    4.1182    0.4466   -1.5400 C   0  0  0  0  0  0  0  0  0  0  0  0
    1.0546   -0.6109    1.4045 H   0  0  0  0  0  0  0  0  0  0  0  0
    0.5524    0.6272    0.2473 H   0  0  0  0  0  0  0  0  0  0  0  0
    1.7013    1.0245    1.5840 H   0  0  0  0  0  0  0  0  0  0  0  0
    1.8163    2.5600   -0.1937 H   0  0  0  0  0  0  0  0  0  0  0  0
    2.9579    4.1297   -1.6228 H   0  0  0  0  0  0  0  0  0  0  0  0
    8.7238    4.1867   -5.0085 H   0  0  0  0  0  0  0  0  0  0  0  0
    8.8063    6.1761   -6.4706 H   0  0  0  0  0  0  0  0  0  0  0  0
    6.7872    7.5873   -6.8236 H   0  0  0  0  0  0  0  0  0  0  0  0
    4.6508    6.9600   -5.6893 H   0  0  0  0  0  0  0  0  0  0  0  0
    5.6027    1.0093   -2.9927 H   0  0  0  0  0  0  0  0  0  0  0  0
    4.4561   -0.5860   -1.5000 H   0  0  0  0  0  0  0  0  0  0  0  0
  1  2  1  0  0  0  0
  1 19  1  0  0  0  0
  1 20  1  0  0  0  0
  1 21  1  0  0  0  0
  2  3  1  0  0  0  0
  3  4  1  0  0  0  0
  3 18  2  0  0  0  0
  4  5  2  0  0  0  0
  4 22  1  0  0  0  0
  5  6  1  0  0  0  0
  5 23  1  0  0  0  0
  6  7  1  0  0  0  0
  6 17  2  0  0  0  0
  7  8  1  0  0  0  0
  7 15  2  0  0  0  0
  8  9  2  0  0  0  0
  9 10  1  0  0  0  0
  9 14  1  0  0  0  0
 10 11  2  0  0  0  0
 10 24  1  0  0  0  0
 11 12  1  0  0  0  0
 11 25  1  0  0  0  0
 12 13  2  0  0  0  0
 12 26  1  0  0  0  0
 13 14  1  0  0  0  0
 13 27  1  0  0  0  0
 14 15  1  0  0  0  0
 15 16  1  0  0  0  0
 17 18  1  0  0  0  0
 17 28  1  0  0  0  0
 18 29  1  0  0  0  0
M  END
>  <Energy>
59.9894

$$$$

 OpenBabel04232614443D

 36 38  0  0  0  0  0  0  0  0999 V2000
    1.3963    0.1207    0.5065 C   0  0  0  0  0  0  0  0  0  0  0  0
    0.8856   -0.0290   -0.7803 C   0  0  0  0  0  0  0  0  0  0  0  0
   -0.4846    0.1346   -1.0226 C   0  0  0  0  0  0  0  0  0  0  0  0
   -1.3738    0.4665    0.0113 C   0  0  0  0  0  0  0  0  0  0  0  0
   -2.8410    0.6052   -0.1980 C   0  0  0  0  0  0  0  0  0  0  0  0
   -3.7048    0.0249    0.7634 C   0  0  0  0  0  0  0  0  0  0  0  0
   -5.0914    0.1653    0.7046 C   0  0  0  0  0  0  0  0  0  0  0  0
   -5.6596    0.8873   -0.3293 C   0  0  0  0  0  0  0  0  0  0  0  0
   -4.8437    1.4420   -1.3131 C   0  0  0  0  0  0  0  0  0  0  0  0
   -3.4420    1.2988   -1.2775 C   0  0  0  0  0  0  0  0  0  0  0  0
   -2.6176    1.8260   -2.2529 O   0  0  0  0  0  0  0  0  0  0  0  0
   -3.2756    2.4143   -3.3794 C   0  0  0  0  0  0  0  0  0  0  0  0
   -2.2711    2.8124   -4.4532 C   0  0  0  0  0  0  0  0  0  0  0  0
   -2.9440    3.5003   -5.5410 N   0  0  0  0  0  0  0  0  0  0  0  0
   -3.2311    4.8370   -5.5884 C   0  0  0  0  0  0  0  0  0  0  0  0
   -3.9833    4.9958   -6.7299 C   0  0  0  0  0  0  0  0  0  0  0  0
   -4.1436    3.7970   -7.3768 N   0  0  0  0  0  0  0  0  0  0  0  0
   -3.4996    2.9161   -6.6419 C   0  0  0  0  0  0  0  0  0  0  0  0
   -0.8220    0.6274    1.3014 C   0  0  0  0  0  0  0  0  0  0  0  0
    0.5409    0.4478    1.5505 C   0  0  0  0  0  0  0  0  0  0  0  0
    2.4576   -0.0181    0.6948 H   0  0  0  0  0  0  0  0  0  0  0  0
    1.5533   -0.2827   -1.5995 H   0  0  0  0  0  0  0  0  0  0  0  0
   -0.8540   -0.0152   -2.0347 H   0  0  0  0  0  0  0  0  0  0  0  0
   -3.2906   -0.5550    1.5874 H   0  0  0  0  0  0  0  0  0  0  0  0
   -5.7177   -0.2824    1.4712 H   0  0  0  0  0  0  0  0  0  0  0  0
   -6.7369    1.0177   -0.3779 H   0  0  0  0  0  0  0  0  0  0  0  0
   -5.3497    1.9958   -2.0992 H   0  0  0  0  0  0  0  0  0  0  0  0
   -3.8177    3.3100   -3.0497 H   0  0  0  0  0  0  0  0  0  0  0  0
   -3.9819    1.6987   -3.8209 H   0  0  0  0  0  0  0  0  0  0  0  0
   -1.7651    1.9306   -4.8658 H   0  0  0  0  0  0  0  0  0  0  0  0
   -1.4958    3.4729   -4.0546 H   0  0  0  0  0  0  0  0  0  0  0  0
   -2.9120    5.5356   -4.8293 H   0  0  0  0  0  0  0  0  0  0  0  0
   -4.4275    5.9047   -7.1139 H   0  0  0  0  0  0  0  0  0  0  0  0
   -3.4266    1.8579   -6.8538 H   0  0  0  0  0  0  0  0  0  0  0  0
   -1.4621    0.8964    2.1402 H   0  0  0  0  0  0  0  0  0  0  0  0
    0.9271    0.5616    2.5602 H   0  0  0  0  0  0  0  0  0  0  0  0
  1  2  1  0  0  0  0
  1 20  2  0  0  0  0
  1 21  1  0  0  0  0
  2  3  2  0  0  0  0
  2 22  1  0  0  0  0
  3  4  1  0  0  0  0
  3 23  1  0  0  0  0
  4  5  1  0  0  0  0
  4 19  2  0  0  0  0
  5  6  1  0  0  0  0
  5 10  2  0  0  0  0
  6  7  2  0  0  0  0
  6 24  1  0  0  0  0
  7  8  1  0  0  0  0
  7 25  1  0  0  0  0
  8  9  2  0  0  0  0
  8 26  1  0  0  0  0
  9 10  1  0  0  0  0
  9 27  1  0  0  0  0
 10 11  1  0  0  0  0
 11 12  1  0  0  0  0
 12 13  1  0  0  0  0
 12 28  1  0  0  0  0
 12 29  1  0  0  0  0
 13 14  1  0  0  0  0
 13 30  1  0  0  0  0
 13 31  1  0  0  0  0
 14 15  1  0  0  0  0
 14 18  1  0  0  0  0
 15 16  2  0  0  0  0
 15 32  1  0  0  0  0
 16 17  1  0  0  0  0
 16 33  1  0  0  0  0
 17 18  2  0  0  0  0
 18 34  1  0  0  0  0
 19 20  1  0  0  0  0
 19 35  1  0  0  0  0
 20 36  1  0  0  0  0
M  END
>  <Energy>
58.8591

$$$$

 OpenBabel04232614443D

 36 36  0  0  0  0  0  0  0  0999 V2000
    1.0004   -0.3884   -0.0435 C   0  0  0  0  0  0  0  0  0  0  0  0
    2.4686   -0.0608    0.0430 C   0  0  0  0  0  0  0  0  0  0  0  0
    3.0649    0.4385   -0.9057 O   0  0  0  0  0  0  0  0  0  0  0  0
    3.1874   -0.3545    1.3147 C   0  0  0  0  0  0  0  0  0  0  0  0
    2.7944   -1.4320    2.1192 C   0  0  0  0  0  0  0  0  0  0  0  0
    3.4748   -1.7122    3.3150 C   0  0  0  0  0  0  0  0  0  0  0  0
    3.0437   -2.8228    4.1103 C   0  0  0  0  0  0  0  0  0  0  0  0
    2.6412   -3.7289    4.7115 N   0  0  0  0  0  0  0  0  0  0  0  0
    4.5305   -0.8876    3.6843 C   0  0  0  0  0  0  0  0  0  0  0  0
    5.4813   -1.1218    5.1848 S   0  0  0  0  0  0  0  0  0  0  0  0
    6.0170    0.6028    5.4677 C   0  0  0  0  0  0  0  0  0  0  0  0
    6.8649    0.7375    6.7337 C   0  0  0  0  0  0  0  0  0  0  0  0
    7.3154    2.1947    6.9808 C   0  0  0  0  0  0  0  0  0  0  0  0
    6.1344    3.1426    7.2056 C   0  0  0  0  0  0  0  0  0  0  0  0
    8.2598    2.2643    8.1826 C   0  0  0  0  0  0  0  0  0  0  0  0
    4.9219    0.1523    2.9064 N   0  0  0  0  0  0  0  0  0  0  0  0
    4.2703    0.4139    1.7408 C   0  0  0  0  0  0  0  0  0  0  0  0
    4.7979    1.5971    0.9819 C   0  0  0  0  0  0  0  0  0  0  0  0
    0.5946    0.0316   -0.9695 H   0  0  0  0  0  0  0  0  0  0  0  0
    0.4636    0.0652    0.7941 H   0  0  0  0  0  0  0  0  0  0  0  0
    0.8470   -1.4695   -0.0655 H   0  0  0  0  0  0  0  0  0  0  0  0
    1.9713   -2.0778    1.8203 H   0  0  0  0  0  0  0  0  0  0  0  0
    5.1119    1.2111    5.5469 H   0  0  0  0  0  0  0  0  0  0  0  0
    6.6018    0.9509    4.6104 H   0  0  0  0  0  0  0  0  0  0  0  0
    7.7590    0.1067    6.6361 H   0  0  0  0  0  0  0  0  0  0  0  0
    6.3083    0.3723    7.6058 H   0  0  0  0  0  0  0  0  0  0  0  0
    7.8694    2.5438    6.0998 H   0  0  0  0  0  0  0  0  0  0  0  0
    5.5035    2.8002    8.0326 H   0  0  0  0  0  0  0  0  0  0  0  0
    5.5103    3.2261    6.3109 H   0  0  0  0  0  0  0  0  0  0  0  0
    6.4859    4.1525    7.4429 H   0  0  0  0  0  0  0  0  0  0  0  0
    7.7643    1.9244    9.0984 H   0  0  0  0  0  0  0  0  0  0  0  0
    8.6031    3.2918    8.3463 H   0  0  0  0  0  0  0  0  0  0  0  0
    9.1450    1.6408    8.0211 H   0  0  0  0  0  0  0  0  0  0  0  0
    5.5848    2.1005    1.5546 H   0  0  0  0  0  0  0  0  0  0  0  0
    4.0039    2.3291    0.8061 H   0  0  0  0  0  0  0  0  0  0  0  0
    5.2390    1.2829    0.0314 H   0  0  0  0  0  0  0  0  0  0  0  0
  1  2  1  0  0  0  0
  1 19  1  0  0  0  0
  1 20  1  0  0  0  0
  1 21  1  0  0  0  0
  2  3  2  0  0  0  0
  2  4  1  0  0  0  0
  4  5  1  0  0  0  0
  4 17  2  0  0  0  0
  5  6  2  0  0  0  0
  5 22  1  0  0  0  0
  6  7  1  0  0  0  0
  6  9  1  0  0  0  0
  7  8  3  0  0  0  0
  9 10  1  0  0  0  0
  9 16  2  0  0  0  0
 10 11  1  0  0  0  0
 11 12  1  0  0  0  0
 11 23  1  0  0  0  0
 11 24  1  0  0  0  0
 12 13  1  0  0  0  0
 12 25  1  0  0  0  0
 12 26  1  0  0  0  0
 13 14  1  0  0  0  0
 13 15  1  0  0  0  0
 13 27  1  0  0  0  0
 14 28  1  0  0  0  0
 14 29  1  0  0  0  0
 14 30  1  0  0  0  0
 15 31  1  0  0  0  0
 15 32  1  0  0  0  0
 15 33  1  0  0  0  0
 16 17  1  0  0  0  0
 17 18  1  0  0  0  0
 18 34  1  0  0  0  0
 18 35  1  0  0  0  0
 18 36  1  0  0  0  0
M  END
>  <Energy>
36.8564

$$$$

 OpenBabel04232614443D

 38 39  0  0  0  0  0  0  0  0999 V2000
    1.9672    0.3171   -3.0677 C   0  0  0  0  0  0  0  0  0  0  0  0
    0.8137   -0.4637   -2.5081 C   0  0  0  0  0  0  0  0  0  0  0  0
   -0.4897   -0.2689   -2.9880 C   0  0  0  0  0  0  0  0  0  0  0  0
   -1.5619   -1.0081   -2.4726 C   0  0  0  0  0  0  0  0  0  0  0  0
   -2.9539   -0.8328   -3.0015 C   0  0  0  0  0  0  0  0  0  0  0  0
   -1.3169   -1.9558   -1.4744 C   0  0  0  0  0  0  0  0  0  0  0  0
   -0.0174   -2.1696   -1.0111 C   0  0  0  0  0  0  0  0  0  0  0  0
    0.1068   -3.2739   -0.1412 O   0  0  0  0  0  0  0  0  0  0  0  0
    1.3419   -3.8152    0.2073 C   0  0  0  0  0  0  0  0  0  0  0  0
    2.3759   -3.1978    0.4282 O   0  0  0  0  0  0  0  0  0  0  0  0
    1.2250   -5.3262    0.1910 C   0  0  0  0  0  0  0  0  0  0  0  0
    0.7956   -5.8489    1.4360 O   0  0  0  0  0  0  0  0  0  0  0  0
    0.5616   -7.2021    1.4405 C   0  0  0  0  0  0  0  0  0  0  0  0
    1.2400   -8.1116    0.6142 C   0  0  0  0  0  0  0  0  0  0  0  0
    0.9593   -9.4766    0.6818 C   0  0  0  0  0  0  0  0  0  0  0  0
    0.0105   -9.9447    1.5810 C   0  0  0  0  0  0  0  0  0  0  0  0
   -0.6568   -9.0507    2.4218 C   0  0  0  0  0  0  0  0  0  0  0  0
   -0.3892   -7.6763    2.3587 C   0  0  0  0  0  0  0  0  0  0  0  0
   -1.1044   -6.7371    3.2883 C   0  0  0  0  0  0  0  0  0  0  0  0
    1.0442   -1.4192   -1.5089 C   0  0  0  0  0  0  0  0  0  0  0  0
    1.6448    0.9960   -3.8638 H   0  0  0  0  0  0  0  0  0  0  0  0
    2.7123   -0.3642   -3.4923 H   0  0  0  0  0  0  0  0  0  0  0  0
    2.4349    0.9165   -2.2804 H   0  0  0  0  0  0  0  0  0  0  0  0
   -0.6681    0.4585   -3.7775 H   0  0  0  0  0  0  0  0  0  0  0  0
   -2.9991   -0.0465   -3.7606 H   0  0  0  0  0  0  0  0  0  0  0  0
   -3.6351   -0.5571   -2.1899 H   0  0  0  0  0  0  0  0  0  0  0  0
   -3.2999   -1.7651   -3.4608 H   0  0  0  0  0  0  0  0  0  0  0  0
   -2.1326   -2.5562   -1.0793 H   0  0  0  0  0  0  0  0  0  0  0  0
    2.2206   -5.6960   -0.0808 H   0  0  0  0  0  0  0  0  0  0  0  0
    0.5255   -5.6036   -0.6098 H   0  0  0  0  0  0  0  0  0  0  0  0
    2.0111   -7.7951   -0.0796 H   0  0  0  0  0  0  0  0  0  0  0  0
    1.4897  -10.1730    0.0372 H   0  0  0  0  0  0  0  0  0  0  0  0
   -0.2082  -11.0087    1.6399 H   0  0  0  0  0  0  0  0  0  0  0  0
   -1.3870   -9.4381    3.1306 H   0  0  0  0  0  0  0  0  0  0  0  0
   -1.9324   -7.2386    3.8001 H   0  0  0  0  0  0  0  0  0  0  0  0
   -1.5302   -5.8945    2.7335 H   0  0  0  0  0  0  0  0  0  0  0  0
   -0.4126   -6.3610    4.0483 H   0  0  0  0  0  0  0  0  0  0  0  0
    2.0611   -1.5655   -1.1574 H   0  0  0  0  0  0  0  0  0  0  0  0
  1  2  1  0  0  0  0
  1 21  1  0  0  0  0
  1 22  1  0  0  0  0
  1 23  1  0  0  0  0
  2  3  1  0  0  0  0
  2 20  2  0  0  0  0
  3  4  2  0  0  0  0
  3 24  1  0  0  0  0
  4  5  1  0  0  0  0
  4  6  1  0  0  0  0
  5 25  1  0  0  0  0
  5 26  1  0  0  0  0
  5 27  1  0  0  0  0
  6  7  2  0  0  0  0
  6 28  1  0  0  0  0
  7  8  1  0  0  0  0
  7 20  1  0  0  0  0
  8  9  1  0  0  0  0
  9 10  2  0  0  0  0
  9 11  1  0  0  0  0
 11 12  1  0  0  0  0
 11 29  1  0  0  0  0
 11 30  1  0  0  0  0
 12 13  1  0  0  0  0
 13 14  1  0  0  0  0
 13 18  2  0  0  0  0
 14 15  2  0  0  0  0
 14 31  1  0  0  0  0
 15 16  1  0  0  0  0
 15 32  1  0  0  0  0
 16 17  2  0  0  0  0
 16 33  1  0  0  0  0
 17 18  1  0  0  0  0
 17 34  1  0  0  0  0
 18 19  1  0  0  0  0
 19 35  1  0  0  0  0
 19 36  1  0  0  0  0
 19 37  1  0  0  0  0
 20 38  1  0  0  0  0
M  END
>  <Energy>
83.9182

$$$$

 OpenBabel04232614443D

 36 38  0  0  0  0  0  0  0  0999 V2000
    2.5540    1.2587   -2.6484 C   0  0  0  0  0  0  0  0  0  0  0  0
    2.2132    1.9278   -1.3262 C   0  0  0  0  0  0  0  0  0  0  0  0
    2.9579    1.3403   -0.1226 C   0  0  0  0  0  0  0  0  0  0  0  0
    4.4049    1.4150   -0.1814 N   0  0  0  0  0  0  0  0  0  0  0  0
    5.1760    2.5606   -0.1764 C   0  0  0  0  0  0  0  0  0  0  0  0
    4.6550    3.8025   -0.0990 N   0  0  0  0  0  0  0  0  0  0  0  0
    5.4198    4.8808   -0.7144 C   0  0  0  0  0  0  0  0  0  0  0  0
    4.7903    6.2342   -0.6293 C   0  0  0  0  0  0  0  0  0  0  0  0
    5.3214    7.5079   -0.5933 C   0  0  0  0  0  0  0  0  0  0  0  0
    4.2248    8.4008   -0.5531 C   0  0  0  0  0  0  0  0  0  0  0  0
    3.0944    7.6183   -0.5686 C   0  0  0  0  0  0  0  0  0  0  0  0
    3.4239    6.3002   -0.6197 O   0  0  0  0  0  0  0  0  0  0  0  0
    6.4530    2.2658   -0.2634 N   0  0  0  0  0  0  0  0  0  0  0  0
    6.5288    0.8993   -0.2389 C   0  0  0  0  0  0  0  0  0  0  0  0
    7.6634    0.0741   -0.2373 C   0  0  0  0  0  0  0  0  0  0  0  0
    7.4922   -1.3134   -0.1971 C   0  0  0  0  0  0  0  0  0  0  0  0
    6.2132   -1.8690   -0.1708 C   0  0  0  0  0  0  0  0  0  0  0  0
    5.0677   -1.0603   -0.1744 C   0  0  0  0  0  0  0  0  0  0  0  0
    5.2595    0.3280   -0.1996 C   0  0  0  0  0  0  0  0  0  0  0  0
    1.9691    1.7137   -3.4553 H   0  0  0  0  0  0  0  0  0  0  0  0
    2.3200    0.1906   -2.6221 H   0  0  0  0  0  0  0  0  0  0  0  0
    3.6122    1.3794   -2.8982 H   0  0  0  0  0  0  0  0  0  0  0  0
    1.1361    1.8220   -1.1481 H   0  0  0  0  0  0  0  0  0  0  0  0
    2.4027    3.0010   -1.4195 H   0  0  0  0  0  0  0  0  0  0  0  0
    2.6696    0.2906   -0.0027 H   0  0  0  0  0  0  0  0  0  0  0  0
    2.6534    1.8544    0.7963 H   0  0  0  0  0  0  0  0  0  0  0  0
    3.6594    3.9839   -0.0924 H   0  0  0  0  0  0  0  0  0  0  0  0
    5.5592    4.6560   -1.7817 H   0  0  0  0  0  0  0  0  0  0  0  0
    6.4140    4.9365   -0.2579 H   0  0  0  0  0  0  0  0  0  0  0  0
    6.3738    7.7563   -0.6043 H   0  0  0  0  0  0  0  0  0  0  0  0
    4.2538    9.4810   -0.5218 H   0  0  0  0  0  0  0  0  0  0  0  0
    2.0355    7.8359   -0.5550 H   0  0  0  0  0  0  0  0  0  0  0  0
    8.6535    0.5169   -0.2527 H   0  0  0  0  0  0  0  0  0  0  0  0
    8.3657   -1.9608   -0.1831 H   0  0  0  0  0  0  0  0  0  0  0  0
    6.1025   -2.9512   -0.1406 H   0  0  0  0  0  0  0  0  0  0  0  0
    4.0806   -1.5082   -0.1466 H   0  0  0  0  0  0  0  0  0  0  0  0
  1  2  1  0  0  0  0
  1 20  1  0  0  0  0
  1 21  1  0  0  0  0
  1 22  1  0  0  0  0
  2  3  1  0  0  0  0
  2 23  1  0  0  0  0
  2 24  1  0  0  0  0
  3  4  1  0  0  0  0
  3 25  1  0  0  0  0
  3 26  1  0  0  0  0
  4  5  1  0  0  0  0
  4 19  1  0  0  0  0
  5  6  1  0  0  0  0
  5 13  2  0  0  0  0
  6  7  1  0  0  0  0
  6 27  1  0  0  0  0
  7  8  1  0  0  0  0
  7 28  1  0  0  0  0
  7 29  1  0  0  0  0
  8  9  2  0  0  0  0
  8 12  1  0  0  0  0
  9 10  1  0  0  0  0
  9 30  1  0  0  0  0
 10 11  2  0  0  0  0
 10 31  1  0  0  0  0
 11 12  1  0  0  0  0
 11 32  1  0  0  0  0
 13 14  1  0  0  0  0
 14 15  1  0  0  0  0
 14 19  2  0  0  0  0
 15 16  2  0  0  0  0
 15 33  1  0  0  0  0
 16 17  1  0  0  0  0
 16 34  1  0  0  0  0
 17 18  2  0  0  0  0
 17 35  1  0  0  0  0
 18 19  1  0  0  0  0
 18 36  1  0  0  0  0
M  END
>  <Energy>
-9.48019

$$$$

 OpenBabel04232614443D

 33 35  0  0  0  0  0  0  0  0999 V2000
    1.4756    1.1079   -0.1369 O   0  0  0  0  0  0  0  0  0  0  0  0
    2.4721    0.4163    0.0254 C   0  0  0  0  0  0  0  0  0  0  0  0
    3.1436    0.1240    1.2264 N   0  0  0  0  0  0  0  0  0  0  0  0
    4.5730    0.2273    1.2867 C   0  0  0  0  0  0  0  0  0  0  0  0
    5.2435    1.2559    0.6066 C   0  0  0  0  0  0  0  0  0  0  0  0
    6.6352    1.3313    0.6411 C   0  0  0  0  0  0  0  0  0  0  0  0
    7.3688    0.3730    1.3387 C   0  0  0  0  0  0  0  0  0  0  0  0
    6.7130   -0.6577    2.0107 C   0  0  0  0  0  0  0  0  0  0  0  0
    5.3194   -0.7297    1.9913 C   0  0  0  0  0  0  0  0  0  0  0  0
    2.4350    0.2611    2.4820 C   0  0  0  0  0  0  0  0  0  0  0  0
    1.0618   -0.0307    2.5482 C   0  0  0  0  0  0  0  0  0  0  0  0
    0.3448    0.1029    3.7435 C   0  0  0  0  0  0  0  0  0  0  0  0
    0.9861    0.5299    4.9011 C   0  0  0  0  0  0  0  0  0  0  0  0
    2.3439    0.8225    4.8645 C   0  0  0  0  0  0  0  0  0  0  0  0
    3.0601    0.6890    3.6694 C   0  0  0  0  0  0  0  0  0  0  0  0
    3.0408   -0.1960   -1.1163 N   0  0  0  0  0  0  0  0  0  0  0  0
    2.8666    0.2220   -2.4233 C   0  0  0  0  0  0  0  0  0  0  0  0
    3.6124   -0.6280   -3.2015 C   0  0  0  0  0  0  0  0  0  0  0  0
    4.1837   -1.6052   -2.4373 N   0  0  0  0  0  0  0  0  0  0  0  0
    3.8037   -1.3433   -1.2057 C   0  0  0  0  0  0  0  0  0  0  0  0
    4.6927    2.0270    0.0721 H   0  0  0  0  0  0  0  0  0  0  0  0
    7.1476    2.1379    0.1223 H   0  0  0  0  0  0  0  0  0  0  0  0
    8.4545    0.4291    1.3552 H   0  0  0  0  0  0  0  0  0  0  0  0
    7.2895   -1.4104    2.5434 H   0  0  0  0  0  0  0  0  0  0  0  0
    4.8226   -1.5498    2.5045 H   0  0  0  0  0  0  0  0  0  0  0  0
    0.5177   -0.3725    1.6703 H   0  0  0  0  0  0  0  0  0  0  0  0
   -0.7189   -0.1216    3.7638 H   0  0  0  0  0  0  0  0  0  0  0  0
    0.4276    0.6429    5.8265 H   0  0  0  0  0  0  0  0  0  0  0  0
    2.8506    1.1697    5.7617 H   0  0  0  0  0  0  0  0  0  0  0  0
    4.1093    0.9702    3.6939 H   0  0  0  0  0  0  0  0  0  0  0  0
    2.2721    1.0940   -2.6579 H   0  0  0  0  0  0  0  0  0  0  0  0
    3.7596   -0.5928   -4.2735 H   0  0  0  0  0  0  0  0  0  0  0  0
    4.0332   -1.9605   -0.3479 H   0  0  0  0  0  0  0  0  0  0  0  0
  1  2  2  0  0  0  0
  2  3  1  0  0  0  0
  2 16  1  0  0  0  0
  3  4  1  0  0  0  0
  3 10  1  0  0  0  0
  4  5  1  0  0  0  0
  4  9  2  0  0  0  0
  5  6  2  0  0  0  0
  5 21  1  0  0  0  0
  6  7  1  0  0  0  0
  6 22  1  0  0  0  0
  7  8  2  0  0  0  0
  7 23  1  0  0  0  0
  8  9  1  0  0  0  0
  8 24  1  0  0  0  0
  9 25  1  0  0  0  0
 10 11  1  0  0  0  0
 10 15  2  0  0  0  0
 11 12  2  0  0  0  0
 11 26  1  0  0  0  0
 12 13  1  0  0  0  0
 12 27  1  0  0  0  0
 13 14  2  0  0  0  0
 13 28  1  0  0  0  0
 14 15  1  0  0  0  0
 14 29  1  0  0  0  0
 15 30  1  0  0  0  0
 16 17  1  0  0  0  0
 16 20  1  0  0  0  0
 17 18  2  0  0  0  0
 17 31  1  0  0  0  0
 18 19  1  0  0  0  0
 18 32  1  0  0  0  0
 19 20  2  0  0  0  0
 20 33  1  0  0  0  0
M  END
>  <Energy>
97.4684

$$$$

 OpenBabel04232614443D

 41 42  0  0  0  0  0  0  0  0999 V2000
    2.5250    0.3732   -0.0574 C   0  0  0  0  0  0  0  0  0  0  0  0
    1.0402    0.1421    0.0201 C   0  0  0  0  0  0  0  0  0  0  0  0
    0.2555    1.3078    0.0621 C   0  0  0  0  0  0  0  0  0  0  0  0
   -1.1261    1.2407    0.0649 C   0  0  0  0  0  0  0  0  0  0  0  0
   -1.7551    0.0017    0.0383 C   0  0  0  0  0  0  0  0  0  0  0  0
   -1.0286   -1.2100    0.0141 C   0  0  0  0  0  0  0  0  0  0  0  0
   -1.8077   -2.5552    0.0046 C   0  0  0  0  0  0  0  0  0  0  0  0
   -3.3543   -2.3851   -0.0107 C   0  0  0  0  0  0  0  0  0  0  0  0
   -1.4716   -3.3883   -1.2512 C   0  0  0  0  0  0  0  0  0  0  0  0
   -1.4900   -3.3633    1.2805 C   0  0  0  0  0  0  0  0  0  0  0  0
    0.3999   -1.1256    0.0154 C   0  0  0  0  0  0  0  0  0  0  0  0
    1.0669   -2.3255   -0.0973 O   0  0  0  0  0  0  0  0  0  0  0  0
    2.2792   -2.4986    0.6347 C   0  0  0  0  0  0  0  0  0  0  0  0
    2.6818   -3.9711    0.6373 C   0  0  0  0  0  0  0  0  0  0  0  0
    3.9927   -4.1499    1.2302 N   0  0  0  0  0  0  0  0  0  0  0  0
    4.2588   -4.4286    2.5402 C   0  0  0  0  0  0  0  0  0  0  0  0
    5.6342   -4.4223    2.6314 C   0  0  0  0  0  0  0  0  0  0  0  0
    6.1991   -4.1543    1.4114 N   0  0  0  0  0  0  0  0  0  0  0  0
    5.1882   -4.0028    0.5852 C   0  0  0  0  0  0  0  0  0  0  0  0
    2.7661    1.4340   -0.1911 H   0  0  0  0  0  0  0  0  0  0  0  0
    2.9510   -0.1447   -0.9217 H   0  0  0  0  0  0  0  0  0  0  0  0
    3.0128    0.0662    0.8727 H   0  0  0  0  0  0  0  0  0  0  0  0
    0.7248    2.2900    0.0672 H   0  0  0  0  0  0  0  0  0  0  0  0
   -1.7168    2.1528    0.0752 H   0  0  0  0  0  0  0  0  0  0  0  0
   -2.8408    0.0200    0.0322 H   0  0  0  0  0  0  0  0  0  0  0  0
   -3.6935   -1.8488   -0.9053 H   0  0  0  0  0  0  0  0  0  0  0  0
   -3.7134   -1.8451    0.8736 H   0  0  0  0  0  0  0  0  0  0  0  0
   -3.8623   -3.3574   -0.0123 H   0  0  0  0  0  0  0  0  0  0  0  0
   -1.6672   -2.8152   -2.1651 H   0  0  0  0  0  0  0  0  0  0  0  0
   -2.0838   -4.2975   -1.2938 H   0  0  0  0  0  0  0  0  0  0  0  0
   -0.4305   -3.7179   -1.2834 H   0  0  0  0  0  0  0  0  0  0  0  0
   -1.7270   -2.7843    2.1813 H   0  0  0  0  0  0  0  0  0  0  0  0
   -0.4399   -3.6570    1.3464 H   0  0  0  0  0  0  0  0  0  0  0  0
   -2.0792   -4.2879    1.3185 H   0  0  0  0  0  0  0  0  0  0  0  0
    2.1704   -2.1329    1.6630 H   0  0  0  0  0  0  0  0  0  0  0  0
    3.0895   -1.9696    0.1329 H   0  0  0  0  0  0  0  0  0  0  0  0
    2.7186   -4.3675   -0.3845 H   0  0  0  0  0  0  0  0  0  0  0  0
    1.9612   -4.5826    1.1908 H   0  0  0  0  0  0  0  0  0  0  0  0
    3.4861   -4.5915    3.2784 H   0  0  0  0  0  0  0  0  0  0  0  0
    6.2429   -4.5898    3.5097 H   0  0  0  0  0  0  0  0  0  0  0  0
    5.2699   -3.7733   -0.4693 H   0  0  0  0  0  0  0  0  0  0  0  0
  1  2  1  0  0  0  0
  1 20  1  0  0  0  0
  1 21  1  0  0  0  0
  1 22  1  0  0  0  0
  2  3  1  0  0  0  0
  2 11  2  0  0  0  0
  3  4  2  0  0  0  0
  3 23  1  0  0  0  0
  4  5  1  0  0  0  0
  4 24  1  0  0  0  0
  5  6  2  0  0  0  0
  5 25  1  0  0  0  0
  6  7  1  0  0  0  0
  6 11  1  0  0  0  0
  7  8  1  0  0  0  0
  7  9  1  0  0  0  0
  7 10  1  0  0  0  0
  8 26  1  0  0  0  0
  8 27  1  0  0  0  0
  8 28  1  0  0  0  0
  9 29  1  0  0  0  0
  9 30  1  0  0  0  0
  9 31  1  0  0  0  0
 10 32  1  0  0  0  0
 10 33  1  0  0  0  0
 10 34  1  0  0  0  0
 11 12  1  0  0  0  0
 12 13  1  0  0  0  0
 13 14  1  0  0  0  0
 13 35  1  0  0  0  0
 13 36  1  0  0  0  0
 14 15  1  0  0  0  0
 14 37  1  0  0  0  0
 14 38  1  0  0  0  0
 15 16  1  0  0  0  0
 15 19  1  0  0  0  0
 16 17  2  0  0  0  0
 16 39  1  0  0  0  0
 17 18  1  0  0  0  0
 17 40  1  0  0  0  0
 18 19  2  0  0  0  0
 19 41  1  0  0  0  0
M  END
>  <Energy>
56.5761

$$$$

 OpenBabel04232614443D

 32 34  0  0  0  0  0  0  0  0999 V2000
    1.3397    0.7592    0.0290 C   0  0  0  0  0  0  0  0  0  0  0  0
    2.5483   -0.0523    0.0866 N   0  0  0  0  0  0  0  0  0  0  0  0
    3.0282   -0.4590    1.4018 C   0  0  0  0  0  0  0  0  0  0  0  0
    3.2608   -0.3657   -1.0643 C   0  0  0  0  0  0  0  0  0  0  0  0
    2.8953    0.1223   -2.3301 C   0  0  0  0  0  0  0  0  0  0  0  0
    3.6009   -0.2136   -3.4980 C   0  0  0  0  0  0  0  0  0  0  0  0
    4.7074   -1.0628   -3.4461 C   0  0  0  0  0  0  0  0  0  0  0  0
    5.4063   -1.4383   -4.6674 C   0  0  0  0  0  0  0  0  0  0  0  0
    5.1994   -1.0797   -5.9170 N   0  0  0  0  0  0  0  0  0  0  0  0
    6.1191   -1.7745   -6.6794 N   0  0  0  0  0  0  0  0  0  0  0  0
    6.8306   -2.5144   -5.8468 C   0  0  0  0  0  0  0  0  0  0  0  0
    7.8771   -3.4081   -6.2516 C   0  0  0  0  0  0  0  0  0  0  0  0
    8.2816   -3.6936   -7.5419 C   0  0  0  0  0  0  0  0  0  0  0  0
    9.3458   -4.6423   -7.5835 C   0  0  0  0  0  0  0  0  0  0  0  0
    9.7235   -5.0470   -6.3232 C   0  0  0  0  0  0  0  0  0  0  0  0
    8.7968   -4.2885   -5.1029 S   0  0  0  0  0  0  0  0  0  0  0  0
    6.4304   -2.3374   -4.5439 O   0  0  0  0  0  0  0  0  0  0  0  0
    5.0978   -1.5474   -2.1956 C   0  0  0  0  0  0  0  0  0  0  0  0
    4.3880   -1.2028   -1.0355 C   0  0  0  0  0  0  0  0  0  0  0  0
    0.8586    0.8451    1.0096 H   0  0  0  0  0  0  0  0  0  0  0  0
    0.5984    0.3112   -0.6422 H   0  0  0  0  0  0  0  0  0  0  0  0
    1.5691    1.7758   -0.3081 H   0  0  0  0  0  0  0  0  0  0  0  0
    2.3853   -0.0854    2.2063 H   0  0  0  0  0  0  0  0  0  0  0  0
    4.0329   -0.0647    1.5904 H   0  0  0  0  0  0  0  0  0  0  0  0
    3.0434   -1.5509    1.4901 H   0  0  0  0  0  0  0  0  0  0  0  0
    2.0417    0.7843   -2.4453 H   0  0  0  0  0  0  0  0  0  0  0  0
    3.2640    0.1924   -4.4506 H   0  0  0  0  0  0  0  0  0  0  0  0
    7.8281   -3.2452   -8.4190 H   0  0  0  0  0  0  0  0  0  0  0  0
    9.8087   -5.0088   -8.4921 H   0  0  0  0  0  0  0  0  0  0  0  0
   10.4983   -5.7535   -6.0574 H   0  0  0  0  0  0  0  0  0  0  0  0
    5.9554   -2.2102   -2.0988 H   0  0  0  0  0  0  0  0  0  0  0  0
    4.7419   -1.6273   -0.1002 H   0  0  0  0  0  0  0  0  0  0  0  0
  1  2  1  0  0  0  0
  1 20  1  0  0  0  0
  1 21  1  0  0  0  0
  1 22  1  0  0  0  0
  2  3  1  0  0  0  0
  2  4  1  0  0  0  0
  3 23  1  0  0  0  0
  3 24  1  0  0  0  0
  3 25  1  0  0  0  0
  4  5  1  0  0  0  0
  4 19  2  0  0  0  0
  5  6  2  0  0  0  0
  5 26  1  0  0  0  0
  6  7  1  0  0  0  0
  6 27  1  0  0  0  0
  7  8  1  0  0  0  0
  7 18  2  0  0  0  0
  8  9  2  0  0  0  0
  8 17  1  0  0  0  0
  9 10  1  0  0  0  0
 10 11  2  0  0  0  0
 11 12  1  0  0  0  0
 11 17  1  0  0  0  0
 12 13  2  0  0  0  0
 12 16  1  0  0  0  0
 13 14  1  0  0  0  0
 13 28  1  0  0  0  0
 14 15  2  0  0  0  0
 14 29  1  0  0  0  0
 15 16  1  0  0  0  0
 15 30  1  0  0  0  0
 18 19  1  0  0  0  0
 18 31  1  0  0  0  0
 19 32  1  0  0  0  0
M  END
>  <Energy>
48.1174

$$$$

 OpenBabel04232614443D

 31 33  0  0  0  0  0  0  0  0999 V2000
    1.0452    0.3258   -0.0966 C   0  0  0  0  0  0  0  0  0  0  0  0
    2.5212    0.1710   -0.0529 C   0  0  0  0  0  0  0  0  0  0  0  0
    3.3217   -0.9639   -0.0629 C   0  0  0  0  0  0  0  0  0  0  0  0
    2.9166   -2.3613   -0.0215 C   0  0  0  0  0  0  0  0  0  0  0  0
    3.6880   -3.3143   -0.7067 C   0  0  0  0  0  0  0  0  0  0  0  0
    3.3248   -4.6644   -0.7072 C   0  0  0  0  0  0  0  0  0  0  0  0
    2.1859   -5.0783   -0.0201 C   0  0  0  0  0  0  0  0  0  0  0  0
    1.4264   -4.1476    0.6820 C   0  0  0  0  0  0  0  0  0  0  0  0
    1.7972   -2.7992    0.6931 C   0  0  0  0  0  0  0  0  0  0  0  0
    4.6260   -0.5963   -0.2284 N   0  0  0  0  0  0  0  0  0  0  0  0
    4.6778    0.7203   -0.3174 N   0  0  0  0  0  0  0  0  0  0  0  0
    3.4339    1.2231   -0.1418 N   0  0  0  0  0  0  0  0  0  0  0  0
    3.2399    2.6274   -0.0416 C   0  0  0  0  0  0  0  0  0  0  0  0
    2.1659    3.1677    0.6823 C   0  0  0  0  0  0  0  0  0  0  0  0
    2.0184    4.5555    0.7903 C   0  0  0  0  0  0  0  0  0  0  0  0
    2.9389    5.3996    0.1809 C   0  0  0  0  0  0  0  0  0  0  0  0
    2.7892    6.7255    0.2887 F   0  0  0  0  0  0  0  0  0  0  0  0
    4.0100    4.8857   -0.5315 C   0  0  0  0  0  0  0  0  0  0  0  0
    4.1612    3.5043   -0.6339 C   0  0  0  0  0  0  0  0  0  0  0  0
    5.1858    3.0561   -1.3730 F   0  0  0  0  0  0  0  0  0  0  0  0
    0.5491   -0.5970   -0.4109 H   0  0  0  0  0  0  0  0  0  0  0  0
    0.7505    1.0899   -0.8230 H   0  0  0  0  0  0  0  0  0  0  0  0
    0.6474    0.5874    0.8873 H   0  0  0  0  0  0  0  0  0  0  0  0
    4.5811   -3.0109   -1.2512 H   0  0  0  0  0  0  0  0  0  0  0  0
    3.9324   -5.3890   -1.2445 H   0  0  0  0  0  0  0  0  0  0  0  0
    1.8985   -6.1270   -0.0267 H   0  0  0  0  0  0  0  0  0  0  0  0
    0.5417   -4.4722    1.2277 H   0  0  0  0  0  0  0  0  0  0  0  0
    1.2017   -2.1066    1.2785 H   0  0  0  0  0  0  0  0  0  0  0  0
    1.4616    2.5478    1.2242 H   0  0  0  0  0  0  0  0  0  0  0  0
    1.1991    4.9832    1.3613 H   0  0  0  0  0  0  0  0  0  0  0  0
    4.7221    5.5493   -1.0089 H   0  0  0  0  0  0  0  0  0  0  0  0
  1  2  1  0  0  0  0
  1 21  1  0  0  0  0
  1 22  1  0  0  0  0
  1 23  1  0  0  0  0
  2  3  2  0  0  0  0
  2 12  1  0  0  0  0
  3  4  1  0  0  0  0
  3 10  1  0  0  0  0
  4  5  1  0  0  0  0
  4  9  2  0  0  0  0
  5  6  2  0  0  0  0
  5 24  1  0  0  0  0
  6  7  1  0  0  0  0
  6 25  1  0  0  0  0
  7  8  2  0  0  0  0
  7 26  1  0  0  0  0
  8  9  1  0  0  0  0
  8 27  1  0  0  0  0
  9 28  1  0  0  0  0
 10 11  2  0  0  0  0
 11 12  1  0  0  0  0
 12 13  1  0  0  0  0
 13 14  1  0  0  0  0
 13 19  2  0  0  0  0
 14 15  2  0  0  0  0
 14 29  1  0  0  0  0
 15 16  1  0  0  0  0
 15 30  1  0  0  0  0
 16 17  1  0  0  0  0
 16 18  2  0  0  0  0
 18 19  1  0  0  0  0
 18 31  1  0  0  0  0
 19 20  1  0  0  0  0
M  END
>  <Energy>
51.158

$$$$

 OpenBabel04232614443D

 37 39  0  0  0  0  0  0  0  0999 V2000
   -0.7709   -3.0003   -1.7484 C   0  0  0  0  0  0  0  0  0  0  0  0
   -0.9170   -2.0060   -0.6673 C   0  0  0  0  0  0  0  0  0  0  0  0
   -0.0525   -1.4997    0.2798 C   0  0  0  0  0  0  0  0  0  0  0  0
   -0.7963   -0.5672    1.0414 C   0  0  0  0  0  0  0  0  0  0  0  0
   -2.0743   -0.5647    0.5191 C   0  0  0  0  0  0  0  0  0  0  0  0
   -3.3236    0.1819    0.8565 C   0  0  0  0  0  0  0  0  0  0  0  0
   -3.7414    1.0909   -0.2093 N   0  0  0  0  0  0  0  0  0  0  0  0
   -4.9057    1.7519   -0.0274 C   0  0  0  0  0  0  0  0  0  0  0  0
   -5.8587    1.4967    0.8345 N   0  0  0  0  0  0  0  0  0  0  0  0
   -6.8367    2.4188    0.5795 C   0  0  0  0  0  0  0  0  0  0  0  0
   -6.4736    3.3113   -0.4194 C   0  0  0  0  0  0  0  0  0  0  0  0
   -7.2342    4.4323   -0.9807 C   0  0  0  0  0  0  0  0  0  0  0  0
   -6.6322    5.6486   -1.3329 C   0  0  0  0  0  0  0  0  0  0  0  0
   -7.3759    6.6826   -1.9072 C   0  0  0  0  0  0  0  0  0  0  0  0
   -8.7478    6.5356   -2.0978 C   0  0  0  0  0  0  0  0  0  0  0  0
   -9.3748    5.3570   -1.7059 C   0  0  0  0  0  0  0  0  0  0  0  0
   -8.6247    4.3140   -1.1553 C   0  0  0  0  0  0  0  0  0  0  0  0
   -5.2203    2.8560   -0.7996 N   0  0  0  0  0  0  0  0  0  0  0  0
   -4.3248    3.4112   -1.7867 C   0  0  0  0  0  0  0  0  0  0  0  0
   -2.1483   -1.4379   -0.5302 O   0  0  0  0  0  0  0  0  0  0  0  0
    0.2527   -3.3855   -1.7914 H   0  0  0  0  0  0  0  0  0  0  0  0
   -1.0064   -2.5511   -2.7181 H   0  0  0  0  0  0  0  0  0  0  0  0
   -1.4460   -3.8457   -1.5846 H   0  0  0  0  0  0  0  0  0  0  0  0
    0.9869   -1.7713    0.4023 H   0  0  0  0  0  0  0  0  0  0  0  0
   -0.4474    0.0317    1.8701 H   0  0  0  0  0  0  0  0  0  0  0  0
   -3.1489    0.7622    1.7712 H   0  0  0  0  0  0  0  0  0  0  0  0
   -4.1128   -0.5495    1.0729 H   0  0  0  0  0  0  0  0  0  0  0  0
   -3.6794    0.5985   -1.0982 H   0  0  0  0  0  0  0  0  0  0  0  0
   -7.7644    2.4054    1.1382 H   0  0  0  0  0  0  0  0  0  0  0  0
   -5.5717    5.8136   -1.1572 H   0  0  0  0  0  0  0  0  0  0  0  0
   -6.8836    7.6061   -2.2027 H   0  0  0  0  0  0  0  0  0  0  0  0
   -9.3268    7.3405   -2.5406 H   0  0  0  0  0  0  0  0  0  0  0  0
  -10.4490    5.2440   -1.8304 H   0  0  0  0  0  0  0  0  0  0  0  0
   -9.1378    3.3980   -0.8700 H   0  0  0  0  0  0  0  0  0  0  0  0
   -4.8537    4.0782   -2.4655 H   0  0  0  0  0  0  0  0  0  0  0  0
   -3.8956    2.6007   -2.3815 H   0  0  0  0  0  0  0  0  0  0  0  0
   -3.5340    3.9519   -1.2574 H   0  0  0  0  0  0  0  0  0  0  0  0
  1  2  1  0  0  0  0
  1 21  1  0  0  0  0
  1 22  1  0  0  0  0
  1 23  1  0  0  0  0
  2  3  2  0  0  0  0
  2 20  1  0  0  0  0
  3  4  1  0  0  0  0
  3 24  1  0  0  0  0
  4  5  2  0  0  0  0
  4 25  1  0  0  0  0
  5  6  1  0  0  0  0
  5 20  1  0  0  0  0
  6  7  1  0  0  0  0
  6 26  1  0  0  0  0
  6 27  1  0  0  0  0
  7  8  1  0  0  0  0
  7 28  1  0  0  0  0
  8  9  2  0  0  0  0
  8 18  1  0  0  0  0
  9 10  1  0  0  0  0
 10 11  2  0  0  0  0
 10 29  1  0  0  0  0
 11 12  1  0  0  0  0
 11 18  1  0  0  0  0
 12 13  1  0  0  0  0
 12 17  2  0  0  0  0
 13 14  2  0  0  0  0
 13 30  1  0  0  0  0
 14 15  1  0  0  0  0
 14 31  1  0  0  0  0
 15 16  2  0  0  0  0
 15 32  1  0  0  0  0
 16 17  1  0  0  0  0
 16 33  1  0  0  0  0
 17 34  1  0  0  0  0
 18 19  1  0  0  0  0
 19 35  1  0  0  0  0
 19 36  1  0  0  0  0
 19 37  1  0  0  0  0
M  END
>  <Energy>
3.79692

$$$$

 OpenBabel04232614443D

 36 39  0  0  0  0  0  0  0  0999 V2000
   -0.8652    2.2826    2.9669 C   0  0  0  0  0  0  0  0  0  0  0  0
   -1.9432    1.4386    3.2108 C   0  0  0  0  0  0  0  0  0  0  0  0
   -2.6172    0.8369    2.1439 C   0  0  0  0  0  0  0  0  0  0  0  0
   -2.2094    1.0361    0.8192 C   0  0  0  0  0  0  0  0  0  0  0  0
   -2.8976    0.4906   -0.2880 N   0  0  0  0  0  0  0  0  0  0  0  0
   -3.7323   -0.6543   -0.3347 C   0  0  0  0  0  0  0  0  0  0  0  0
   -4.5202   -0.8211   -1.4801 C   0  0  0  0  0  0  0  0  0  0  0  0
   -5.3969   -1.9098   -1.4761 C   0  0  0  0  0  0  0  0  0  0  0  0
   -5.4699   -2.7894   -0.3998 C   0  0  0  0  0  0  0  0  0  0  0  0
   -4.6313   -2.5764    0.6915 C   0  0  0  0  0  0  0  0  0  0  0  0
   -3.7837   -1.5135    0.7082 N   0  0  0  0  0  0  0  0  0  0  0  0
   -6.4223   -3.7578   -0.6188 N   0  0  0  0  0  0  0  0  0  0  0  0
   -6.9348   -3.4746   -1.7938 C   0  0  0  0  0  0  0  0  0  0  0  0
   -6.3287   -2.3886   -2.3641 N   0  0  0  0  0  0  0  0  0  0  0  0
   -6.6965   -1.8061   -3.6442 C   0  0  0  0  0  0  0  0  0  0  0  0
   -5.9444   -2.3200   -4.8390 C   0  0  0  0  0  0  0  0  0  0  0  0
   -5.9701   -3.7832   -5.2143 C   0  0  0  0  0  0  0  0  0  0  0  0
   -4.6806   -3.1476   -4.7713 C   0  0  0  0  0  0  0  0  0  0  0  0
   -1.1459    1.9242    0.5921 C   0  0  0  0  0  0  0  0  0  0  0  0
   -0.4711    2.5335    1.6556 C   0  0  0  0  0  0  0  0  0  0  0  0
   -0.3423    2.7506    3.7960 H   0  0  0  0  0  0  0  0  0  0  0  0
   -2.2708    1.2465    4.2290 H   0  0  0  0  0  0  0  0  0  0  0  0
   -3.4720    0.2056    2.3697 H   0  0  0  0  0  0  0  0  0  0  0  0
   -2.3577    0.5585   -1.1423 H   0  0  0  0  0  0  0  0  0  0  0  0
   -4.4765   -0.1221   -2.3047 H   0  0  0  0  0  0  0  0  0  0  0  0
   -4.6295   -3.2188    1.5621 H   0  0  0  0  0  0  0  0  0  0  0  0
   -7.7365   -4.0194   -2.2753 H   0  0  0  0  0  0  0  0  0  0  0  0
   -6.5540   -0.7224   -3.5593 H   0  0  0  0  0  0  0  0  0  0  0  0
   -7.7719   -1.9722   -3.7845 H   0  0  0  0  0  0  0  0  0  0  0  0
   -6.0294   -1.6165   -5.6627 H   0  0  0  0  0  0  0  0  0  0  0  0
   -6.0756   -4.0364   -6.2642 H   0  0  0  0  0  0  0  0  0  0  0  0
   -6.4275   -4.5045   -4.5472 H   0  0  0  0  0  0  0  0  0  0  0  0
   -3.9196   -2.9765   -5.5261 H   0  0  0  0  0  0  0  0  0  0  0  0
   -4.2740   -3.4566   -3.8152 H   0  0  0  0  0  0  0  0  0  0  0  0
   -0.8259    2.1499   -0.4215 H   0  0  0  0  0  0  0  0  0  0  0  0
    0.3586    3.2065    1.4588 H   0  0  0  0  0  0  0  0  0  0  0  0
  1  2  1  0  0  0  0
  1 20  2  0  0  0  0
  1 21  1  0  0  0  0
  2  3  2  0  0  0  0
  2 22  1  0  0  0  0
  3  4  1  0  0  0  0
  3 23  1  0  0  0  0
  4  5  1  0  0  0  0
  4 19  2  0  0  0  0
  5  6  1  0  0  0  0
  5 24  1  0  0  0  0
  6  7  1  0  0  0  0
  6 11  2  0  0  0  0
  7  8  2  0  0  0  0
  7 25  1  0  0  0  0
  8  9  1  0  0  0  0
  8 14  1  0  0  0  0
  9 10  2  0  0  0  0
  9 12  1  0  0  0  0
 10 11  1  0  0  0  0
 10 26  1  0  0  0  0
 12 13  2  0  0  0  0
 13 14  1  0  0  0  0
 13 27  1  0  0  0  0
 14 15  1  0  0  0  0
 15 16  1  0  0  0  0
 15 28  1  0  0  0  0
 15 29  1  0  0  0  0
 16 17  1  0  0  0  0
 16 18  1  0  0  0  0
 16 30  1  0  0  0  0
 17 18  1  0  0  0  0
 17 31  1  0  0  0  0
 17 32  1  0  0  0  0
 18 33  1  0  0  0  0
 18 34  1  0  0  0  0
 19 20  1  0  0  0  0
 19 35  1  0  0  0  0
 20 36  1  0  0  0  0
M  END
>  <Energy>
53.6395

$$$$

 OpenBabel04232614443D

 29 31  0  0  0  0  0  0  0  0999 V2000
    2.5439   -0.2224    0.1500 C   0  0  0  0  0  0  0  0  0  0  0  0
    1.0645   -0.0525    0.0405 C   0  0  0  0  0  0  0  0  0  0  0  0
    0.5037    1.1125   -0.4641 C   0  0  0  0  0  0  0  0  0  0  0  0
   -0.8805    1.2164   -0.5706 C   0  0  0  0  0  0  0  0  0  0  0  0
   -1.6938    0.1664   -0.1529 C   0  0  0  0  0  0  0  0  0  0  0  0
   -3.0899    0.2038   -0.1802 N   0  0  0  0  0  0  0  0  0  0  0  0
   -3.8536    1.3165   -0.1318 C   0  0  0  0  0  0  0  0  0  0  0  0
   -3.5070    2.5107   -0.5527 N   0  0  0  0  0  0  0  0  0  0  0  0
   -4.4627    3.4475   -0.2448 C   0  0  0  0  0  0  0  0  0  0  0  0
   -4.3663    4.8273   -0.5082 C   0  0  0  0  0  0  0  0  0  0  0  0
   -5.4004    5.6788   -0.1118 C   0  0  0  0  0  0  0  0  0  0  0  0
   -6.5254    5.1681    0.5379 C   0  0  0  0  0  0  0  0  0  0  0  0
   -7.5697    6.0568    0.9480 C   0  0  0  0  0  0  0  0  0  0  0  0
   -8.4167    6.7798    1.2794 N   0  0  0  0  0  0  0  0  0  0  0  0
   -6.6428    3.7944    0.8021 C   0  0  0  0  0  0  0  0  0  0  0  0
   -5.5951    2.9514    0.3956 C   0  0  0  0  0  0  0  0  0  0  0  0
   -5.4335    1.2454    0.5608 S   0  0  0  0  0  0  0  0  0  0  0  0
   -1.1608   -0.9763    0.3332 N   0  0  0  0  0  0  0  0  0  0  0  0
    0.1891   -1.0597    0.4228 C   0  0  0  0  0  0  0  0  0  0  0  0
    3.0733    0.6667   -0.2099 H   0  0  0  0  0  0  0  0  0  0  0  0
    2.8695   -1.0720   -0.4579 H   0  0  0  0  0  0  0  0  0  0  0  0
    2.8341   -0.3869    1.1919 H   0  0  0  0  0  0  0  0  0  0  0  0
    1.1243    1.9463   -0.7806 H   0  0  0  0  0  0  0  0  0  0  0  0
   -1.2954    2.1278   -0.9836 H   0  0  0  0  0  0  0  0  0  0  0  0
   -3.4453   -0.6529    0.2250 H   0  0  0  0  0  0  0  0  0  0  0  0
   -3.4827    5.2153   -1.0063 H   0  0  0  0  0  0  0  0  0  0  0  0
   -5.3114    6.7450   -0.3145 H   0  0  0  0  0  0  0  0  0  0  0  0
   -7.5126    3.3895    1.3131 H   0  0  0  0  0  0  0  0  0  0  0  0
    0.5574   -1.9983    0.8288 H   0  0  0  0  0  0  0  0  0  0  0  0
  1  2  1  0  0  0  0
  1 20  1  0  0  0  0
  1 21  1  0  0  0  0
  1 22  1  0  0  0  0
  2  3  1  0  0  0  0
  2 19  2  0  0  0  0
  3  4  2  0  0  0  0
  3 23  1  0  0  0  0
  4  5  1  0  0  0  0
  4 24  1  0  0  0  0
  5  6  1  0  0  0  0
  5 18  2  0  0  0  0
  6  7  1  0  0  0  0
  6 25  1  0  0  0  0
  7  8  2  0  0  0  0
  7 17  1  0  0  0  0
  8  9  1  0  0  0  0
  9 10  1  0  0  0  0
  9 16  2  0  0  0  0
 10 11  2  0  0  0  0
 10 26  1  0  0  0  0
 11 12  1  0  0  0  0
 11 27  1  0  0  0  0
 12 13  1  0  0  0  0
 12 15  2  0  0  0  0
 13 14  3  0  0  0  0
 15 16  1  0  0  0  0
 15 28  1  0  0  0  0
 16 17  1  0  0  0  0
 18 19  1  0  0  0  0
 19 29  1  0  0  0  0
M  END
>  <Energy>
-11.5694

$$$$

 OpenBabel04232614443D

 33 36  0  0  0  0  0  0  0  0999 V2000
    1.1023    0.0175   -0.0720 O   0  0  0  0  0  0  0  0  0  0  0  0
    2.3304    0.0191   -0.0743 C   0  0  0  0  0  0  0  0  0  0  0  0
    3.0776    1.2828   -0.0729 C   0  0  0  0  0  0  0  0  0  0  0  0
    4.4177    1.3506   -0.0610 C   0  0  0  0  0  0  0  0  0  0  0  0
    4.9863    2.7116   -0.0613 C   0  0  0  0  0  0  0  0  0  0  0  0
    5.2937    3.3426    1.1504 C   0  0  0  0  0  0  0  0  0  0  0  0
    5.7229    4.6703    1.1598 C   0  0  0  0  0  0  0  0  0  0  0  0
    5.8551    5.3696   -0.0393 C   0  0  0  0  0  0  0  0  0  0  0  0
    5.5908    4.7339   -1.2521 C   0  0  0  0  0  0  0  0  0  0  0  0
    5.1633    3.4054   -1.2655 C   0  0  0  0  0  0  0  0  0  0  0  0
    5.1744    0.0922   -0.0435 C   0  0  0  0  0  0  0  0  0  0  0  0
    6.5722    0.0714   -0.0111 C   0  0  0  0  0  0  0  0  0  0  0  0
    7.2595   -1.1412   -0.0227 C   0  0  0  0  0  0  0  0  0  0  0  0
    6.5626   -2.3485   -0.0521 C   0  0  0  0  0  0  0  0  0  0  0  0
    5.1647   -2.3607   -0.0679 C   0  0  0  0  0  0  0  0  0  0  0  0
    4.4898   -1.1281   -0.0632 C   0  0  0  0  0  0  0  0  0  0  0  0
    3.0738   -1.1461   -0.0795 O   0  0  0  0  0  0  0  0  0  0  0  0
    4.4657   -3.6401   -0.0898 C   0  0  0  0  0  0  0  0  0  0  0  0
    5.1995   -4.7559   -0.0643 C   0  0  0  0  0  0  0  0  0  0  0  0
    6.6957   -4.7492   -0.0219 C   0  0  0  0  0  0  0  0  0  0  0  0
    7.3413   -3.4723   -0.0763 O   0  0  0  0  0  0  0  0  0  0  0  0
    2.4536    2.1719   -0.0832 H   0  0  0  0  0  0  0  0  0  0  0  0
    5.1822    2.8106    2.0926 H   0  0  0  0  0  0  0  0  0  0  0  0
    5.9370    5.1645    2.1041 H   0  0  0  0  0  0  0  0  0  0  0  0
    6.1602    6.4131   -0.0284 H   0  0  0  0  0  0  0  0  0  0  0  0
    5.7008    5.2787   -2.1864 H   0  0  0  0  0  0  0  0  0  0  0  0
    4.9523    2.9226   -2.2170 H   0  0  0  0  0  0  0  0  0  0  0  0
    7.1458    0.9955    0.0179 H   0  0  0  0  0  0  0  0  0  0  0  0
    8.3465   -1.1447   -0.0067 H   0  0  0  0  0  0  0  0  0  0  0  0
    3.3818   -3.6683   -0.1166 H   0  0  0  0  0  0  0  0  0  0  0  0
    4.7087   -5.7241   -0.0693 H   0  0  0  0  0  0  0  0  0  0  0  0
    7.0780   -5.3368   -0.8637 H   0  0  0  0  0  0  0  0  0  0  0  0
    7.0310   -5.2420    0.8973 H   0  0  0  0  0  0  0  0  0  0  0  0
  1  2  2  0  0  0  0
  2  3  1  0  0  0  0
  2 17  1  0  0  0  0
  3  4  2  0  0  0  0
  3 22  1  0  0  0  0
  4  5  1  0  0  0  0
  4 11  1  0  0  0  0
  5  6  1  0  0  0  0
  5 10  2  0  0  0  0
  6  7  2  0  0  0  0
  6 23  1  0  0  0  0
  7  8  1  0  0  0  0
  7 24  1  0  0  0  0
  8  9  2  0  0  0  0
  8 25  1  0  0  0  0
  9 10  1  0  0  0  0
  9 26  1  0  0  0  0
 10 27  1  0  0  0  0
 11 12  1  0  0  0  0
 11 16  2  0  0  0  0
 12 13  2  0  0  0  0
 12 28  1  0  0  0  0
 13 14  1  0  0  0  0
 13 29  1  0  0  0  0
 14 15  2  0  0  0  0
 14 21  1  0  0  0  0
 15 16  1  0  0  0  0
 15 18  1  0  0  0  0
 16 17  1  0  0  0  0
 18 19  2  0  0  0  0
 18 30  1  0  0  0  0
 19 20  1  0  0  0  0
 19 31  1  0  0  0  0
 20 21  1  0  0  0  0
 20 32  1  0  0  0  0
 20 33  1  0  0  0  0
M  END
>  <Energy>
69.8303

$$$$

 OpenBabel04232614443D

 28 30  0  0  0  0  0  0  0  0999 V2000
    3.3899    0.5178   -1.0341 C   0  0  0  0  0  0  0  0  0  0  0  0
    2.4459    0.0679    0.0664 C   0  0  0  0  0  0  0  0  0  0  0  0
    2.8818   -1.1588    0.7151 N   0  0  0  0  0  0  0  0  0  0  0  0
    2.5039   -2.4285    0.3171 C   0  0  0  0  0  0  0  0  0  0  0  0
    1.7511   -2.8648   -0.7864 C   0  0  0  0  0  0  0  0  0  0  0  0
    1.4868   -4.2326   -0.9042 C   0  0  0  0  0  0  0  0  0  0  0  0
    1.9597   -5.1305    0.0463 C   0  0  0  0  0  0  0  0  0  0  0  0
    1.5936   -6.8062   -0.1127 Cl  0  0  0  0  0  0  0  0  0  0  0  0
    2.7257   -4.6954    1.1295 C   0  0  0  0  0  0  0  0  0  0  0  0
    3.0092   -3.3199    1.2657 C   0  0  0  0  0  0  0  0  0  0  0  0
    3.7560   -2.5590    2.2190 C   0  0  0  0  0  0  0  0  0  0  0  0
    4.4990   -2.9082    3.3674 C   0  0  0  0  0  0  0  0  0  0  0  0
    5.1376   -1.9036    4.0973 C   0  0  0  0  0  0  0  0  0  0  0  0
    6.0490   -2.3258    5.4968 Cl  0  0  0  0  0  0  0  0  0  0  0  0
    5.0524   -0.5714    3.7103 C   0  0  0  0  0  0  0  0  0  0  0  0
    4.3170   -0.2020    2.5791 C   0  0  0  0  0  0  0  0  0  0  0  0
    3.6752   -1.2154    1.8460 C   0  0  0  0  0  0  0  0  0  0  0  0
    2.9993    1.4170   -1.5226 H   0  0  0  0  0  0  0  0  0  0  0  0
    3.5122   -0.2584   -1.7971 H   0  0  0  0  0  0  0  0  0  0  0  0
    4.3816    0.7515   -0.6329 H   0  0  0  0  0  0  0  0  0  0  0  0
    1.4413   -0.1010   -0.3358 H   0  0  0  0  0  0  0  0  0  0  0  0
    2.3475    0.8438    0.8326 H   0  0  0  0  0  0  0  0  0  0  0  0
    1.3784   -2.1713   -1.5327 H   0  0  0  0  0  0  0  0  0  0  0  0
    0.9004   -4.5895   -1.7479 H   0  0  0  0  0  0  0  0  0  0  0  0
    3.0988   -5.4055    1.8621 H   0  0  0  0  0  0  0  0  0  0  0  0
    4.5737   -3.9460    3.6747 H   0  0  0  0  0  0  0  0  0  0  0  0
    5.5587    0.1976    4.2888 H   0  0  0  0  0  0  0  0  0  0  0  0
    4.2571    0.8407    2.2843 H   0  0  0  0  0  0  0  0  0  0  0  0
  1  2  1  0  0  0  0
  1 18  1  0  0  0  0
  1 19  1  0  0  0  0
  1 20  1  0  0  0  0
  2  3  1  0  0  0  0
  2 21  1  0  0  0  0
  2 22  1  0  0  0  0
  3  4  1  0  0  0  0
  3 17  1  0  0  0  0
  4  5  1  0  0  0  0
  4 10  2  0  0  0  0
  5  6  2  0  0  0  0
  5 23  1  0  0  0  0
  6  7  1  0  0  0  0
  6 24  1  0  0  0  0
  7  8  1  0  0  0  0
  7  9  2  0  0  0  0
  9 10  1  0  0  0  0
  9 25  1  0  0  0  0
 10 11  1  0  0  0  0
 11 12  1  0  0  0  0
 11 17  2  0  0  0  0
 12 13  2  0  0  0  0
 12 26  1  0  0  0  0
 13 14  1  0  0  0  0
 13 15  1  0  0  0  0
 15 16  2  0  0  0  0
 15 27  1  0  0  0  0
 16 17  1  0  0  0  0
 16 28  1  0  0  0  0
M  END
>  <Energy>
22.0762

$$$$

 OpenBabel04232614443D

 33 36  0  0  0  0  0  0  0  0999 V2000
    1.5128   -0.4925   -0.7393 O   0  0  0  0  0  0  0  0  0  0  0  0
    2.2681    0.0517    0.0667 C   0  0  0  0  0  0  0  0  0  0  0  0
    2.5671    1.4740   -0.0543 C   0  0  0  0  0  0  0  0  0  0  0  0
    2.5100    2.3287   -1.1416 C   0  0  0  0  0  0  0  0  0  0  0  0
    2.8498    3.6274   -0.6728 C   0  0  0  0  0  0  0  0  0  0  0  0
    2.9869    4.9067   -1.2375 C   0  0  0  0  0  0  0  0  0  0  0  0
    3.3371    5.9786   -0.3999 C   0  0  0  0  0  0  0  0  0  0  0  0
    3.5486    5.7887    0.9692 C   0  0  0  0  0  0  0  0  0  0  0  0
    3.4197    4.5244    1.5478 C   0  0  0  0  0  0  0  0  0  0  0  0
    3.0716    3.4858    0.6896 C   0  0  0  0  0  0  0  0  0  0  0  0
    2.8959    2.1960    1.0627 O   0  0  0  0  0  0  0  0  0  0  0  0
    2.8840   -0.6393    1.1112 N   0  0  0  0  0  0  0  0  0  0  0  0
    3.9975   -0.1450    1.9456 C   0  0  0  0  0  0  0  0  0  0  0  0
    4.4979   -1.3160    2.7932 C   0  0  0  0  0  0  0  0  0  0  0  0
    3.4045   -2.3139    2.5981 C   0  0  0  0  0  0  0  0  0  0  0  0
    3.2361   -3.5109    3.2752 C   0  0  0  0  0  0  0  0  0  0  0  0
    2.1656   -4.3277    2.9141 C   0  0  0  0  0  0  0  0  0  0  0  0
    1.2985   -3.9462    1.8790 C   0  0  0  0  0  0  0  0  0  0  0  0
    1.4798   -2.7351    1.2011 C   0  0  0  0  0  0  0  0  0  0  0  0
    2.5335   -1.9209    1.5780 C   0  0  0  0  0  0  0  0  0  0  0  0
    2.2519    2.0389   -2.1510 H   0  0  0  0  0  0  0  0  0  0  0  0
    2.8229    5.0707   -2.2989 H   0  0  0  0  0  0  0  0  0  0  0  0
    3.4415    6.9760   -0.8225 H   0  0  0  0  0  0  0  0  0  0  0  0
    3.8140    6.6369    1.5967 H   0  0  0  0  0  0  0  0  0  0  0  0
    3.5749    4.3539    2.6064 H   0  0  0  0  0  0  0  0  0  0  0  0
    3.6171    0.6387    2.6089 H   0  0  0  0  0  0  0  0  0  0  0  0
    4.7882    0.2726    1.3126 H   0  0  0  0  0  0  0  0  0  0  0  0
    4.6197   -1.0247    3.8403 H   0  0  0  0  0  0  0  0  0  0  0  0
    5.4436   -1.7068    2.4044 H   0  0  0  0  0  0  0  0  0  0  0  0
    3.9144   -3.8060    4.0696 H   0  0  0  0  0  0  0  0  0  0  0  0
    2.0017   -5.2670    3.4365 H   0  0  0  0  0  0  0  0  0  0  0  0
    0.4700   -4.5952    1.6056 H   0  0  0  0  0  0  0  0  0  0  0  0
    0.7887   -2.4534    0.4141 H   0  0  0  0  0  0  0  0  0  0  0  0
  1  2  2  0  0  0  0
  2  3  1  0  0  0  0
  2 12  1  0  0  0  0
  3  4  2  0  0  0  0
  3 11  1  0  0  0  0
  4  5  1  0  0  0  0
  4 21  1  0  0  0  0
  5  6  1  0  0  0  0
  5 10  2  0  0  0  0
  6  7  2  0  0  0  0
  6 22  1  0  0  0  0
  7  8  1  0  0  0  0
  7 23  1  0  0  0  0
  8  9  2  0  0  0  0
  8 24  1  0  0  0  0
  9 10  1  0  0  0  0
  9 25  1  0  0  0  0
 10 11  1  0  0  0  0
 12 13  1  0  0  0  0
 12 20  1  0  0  0  0
 13 14  1  0  0  0  0
 13 26  1  0  0  0  0
 13 27  1  0  0  0  0
 14 15  1  0  0  0  0
 14 28  1  0  0  0  0
 14 29  1  0  0  0  0
 15 16  1  0  0  0  0
 15 20  2  0  0  0  0
 16 17  2  0  0  0  0
 16 30  1  0  0  0  0
 17 18  1  0  0  0  0
 17 31  1  0  0  0  0
 18 19  2  0  0  0  0
 18 32  1  0  0  0  0
 19 20  1  0  0  0  0
 19 33  1  0  0  0  0
M  END
>  <Energy>
54.8514

$$$$

 OpenBabel04232614443D

 38 39  0  0  0  0  0  0  0  0999 V2000
    2.9307   -2.1975   -1.2807 C   0  0  0  0  0  0  0  0  0  0  0  0
    3.4664   -0.9213   -0.9557 O   0  0  0  0  0  0  0  0  0  0  0  0
    3.7947   -0.6723    0.3499 C   0  0  0  0  0  0  0  0  0  0  0  0
    3.5359   -1.5707    1.3958 C   0  0  0  0  0  0  0  0  0  0  0  0
    3.9627   -1.2979    2.6992 C   0  0  0  0  0  0  0  0  0  0  0  0
    4.6554   -0.1263    2.9775 C   0  0  0  0  0  0  0  0  0  0  0  0
    4.8995    0.7877    1.9548 C   0  0  0  0  0  0  0  0  0  0  0  0
    4.4555    0.5346    0.6432 C   0  0  0  0  0  0  0  0  0  0  0  0
    4.8032    1.5665   -0.3711 C   0  0  0  0  0  0  0  0  0  0  0  0
    5.7545    2.3208   -0.2202 O   0  0  0  0  0  0  0  0  0  0  0  0
    3.8955    1.5830   -1.4166 O   0  0  0  0  0  0  0  0  0  0  0  0
    4.2723    2.2839   -2.5747 C   0  0  0  0  0  0  0  0  0  0  0  0
    5.5446    2.1382   -3.1286 C   0  0  0  0  0  0  0  0  0  0  0  0
    5.8704    2.8150   -4.3021 C   0  0  0  0  0  0  0  0  0  0  0  0
    4.9256    3.6209   -4.9515 C   0  0  0  0  0  0  0  0  0  0  0  0
    5.3279    4.3671   -6.2112 C   0  0  0  0  0  0  0  0  0  0  0  0
    4.5154    3.9208   -7.4277 C   0  0  0  0  0  0  0  0  0  0  0  0
    5.2418    5.8824   -6.0161 C   0  0  0  0  0  0  0  0  0  0  0  0
    3.6329    3.7196   -4.4028 C   0  0  0  0  0  0  0  0  0  0  0  0
    3.3051    3.0498   -3.2183 C   0  0  0  0  0  0  0  0  0  0  0  0
    2.8012   -2.2401   -2.3662 H   0  0  0  0  0  0  0  0  0  0  0  0
    1.9468   -2.3372   -0.8217 H   0  0  0  0  0  0  0  0  0  0  0  0
    3.6189   -3.0009   -0.9972 H   0  0  0  0  0  0  0  0  0  0  0  0
    3.0098   -2.5052    1.2292 H   0  0  0  0  0  0  0  0  0  0  0  0
    3.7632   -2.0123    3.4947 H   0  0  0  0  0  0  0  0  0  0  0  0
    5.0089    0.0767    3.9856 H   0  0  0  0  0  0  0  0  0  0  0  0
    5.4484    1.7010    2.1799 H   0  0  0  0  0  0  0  0  0  0  0  0
    6.2921    1.5131   -2.6489 H   0  0  0  0  0  0  0  0  0  0  0  0
    6.8766    2.7101   -4.7015 H   0  0  0  0  0  0  0  0  0  0  0  0
    6.3792    4.1358   -6.4304 H   0  0  0  0  0  0  0  0  0  0  0  0
    3.4452    4.1153   -7.3026 H   0  0  0  0  0  0  0  0  0  0  0  0
    4.6422    2.8473   -7.6071 H   0  0  0  0  0  0  0  0  0  0  0  0
    4.8482    4.4503   -8.3274 H   0  0  0  0  0  0  0  0  0  0  0  0
    4.2158    6.2143   -5.8256 H   0  0  0  0  0  0  0  0  0  0  0  0
    5.6027    6.4063   -6.9079 H   0  0  0  0  0  0  0  0  0  0  0  0
    5.8597    6.2016   -5.1691 H   0  0  0  0  0  0  0  0  0  0  0  0
    2.8729    4.3242   -4.8912 H   0  0  0  0  0  0  0  0  0  0  0  0
    2.3046    3.1314   -2.8055 H   0  0  0  0  0  0  0  0  0  0  0  0
  1  2  1  0  0  0  0
  1 21  1  0  0  0  0
  1 22  1  0  0  0  0
  1 23  1  0  0  0  0
  2  3  1  0  0  0  0
  3  4  1  0  0  0  0
  3  8  2  0  0  0  0
  4  5  2  0  0  0  0
  4 24  1  0  0  0  0
  5  6  1  0  0  0  0
  5 25  1  0  0  0  0
  6  7  2  0  0  0  0
  6 26  1  0  0  0  0
  7  8  1  0  0  0  0
  7 27  1  0  0  0  0
  8  9  1  0  0  0  0
  9 10  2  0  0  0  0
  9 11  1  0  0  0  0
 11 12  1  0  0  0  0
 12 13  1  0  0  0  0
 12 20  2  0  0  0  0
 13 14  2  0  0  0  0
 13 28  1  0  0  0  0
 14 15  1  0  0  0  0
 14 29  1  0  0  0  0
 15 16  1  0  0  0  0
 15 19  2  0  0  0  0
 16 17  1  0  0  0  0
 16 18  1  0  0  0  0
 16 30  1  0  0  0  0
 17 31  1  0  0  0  0
 17 32  1  0  0  0  0
 17 33  1  0  0  0  0
 18 34  1  0  0  0  0
 18 35  1  0  0  0  0
 18 36  1  0  0  0  0
 19 20  1  0  0  0  0
 19 37  1  0  0  0  0
 20 38  1  0  0  0  0
M  END
>  <Energy>
83.5815

$$$$

 OpenBabel04232614443D

 36 39  0  0  0  0  0  0  0  0999 V2000
    1.8966   -0.8049   -0.5090 C   0  0  0  0  0  0  0  0  0  0  0  0
    3.3571   -0.4732   -0.4252 C   0  0  0  0  0  0  0  0  0  0  0  0
    3.7725    0.8439   -0.2224 C   0  0  0  0  0  0  0  0  0  0  0  0
    5.1199    1.1213   -0.0004 C   0  0  0  0  0  0  0  0  0  0  0  0
    6.0559    0.0825    0.0550 C   0  0  0  0  0  0  0  0  0  0  0  0
    7.3810    0.3326    0.4302 C   0  0  0  0  0  0  0  0  0  0  0  0
    8.2038   -0.7578    0.6118 C   0  0  0  0  0  0  0  0  0  0  0  0
    7.7588   -2.0383    0.3030 C   0  0  0  0  0  0  0  0  0  0  0  0
    6.5207   -2.2992   -0.1337 N   0  0  0  0  0  0  0  0  0  0  0  0
    5.6649   -1.2593   -0.1963 C   0  0  0  0  0  0  0  0  0  0  0  0
    4.3163   -1.4991   -0.4418 C   0  0  0  0  0  0  0  0  0  0  0  0
    8.7156   -3.0447    0.6463 N   0  0  0  0  0  0  0  0  0  0  0  0
    9.3424   -3.6052   -0.5585 C   0  0  0  0  0  0  0  0  0  0  0  0
   10.1221   -4.8512   -0.2778 C   0  0  0  0  0  0  0  0  0  0  0  0
    9.7402   -6.1444    0.0138 C   0  0  0  0  0  0  0  0  0  0  0  0
   10.9315   -6.8734    0.2374 C   0  0  0  0  0  0  0  0  0  0  0  0
   11.9640   -5.9808    0.0692 C   0  0  0  0  0  0  0  0  0  0  0  0
   11.4843   -4.7489   -0.2473 O   0  0  0  0  0  0  0  0  0  0  0  0
    9.6211   -2.3044    1.5504 C   0  0  0  0  0  0  0  0  0  0  0  0
    9.5854   -0.8226    1.1509 C   0  0  0  0  0  0  0  0  0  0  0  0
    1.3033    0.0719   -0.7894 H   0  0  0  0  0  0  0  0  0  0  0  0
    1.5468   -1.1569    0.4677 H   0  0  0  0  0  0  0  0  0  0  0  0
    1.7133   -1.5839   -1.2550 H   0  0  0  0  0  0  0  0  0  0  0  0
    3.0497    1.6561   -0.1983 H   0  0  0  0  0  0  0  0  0  0  0  0
    5.4221    2.1520    0.1851 H   0  0  0  0  0  0  0  0  0  0  0  0
    7.7285    1.3328    0.6569 H   0  0  0  0  0  0  0  0  0  0  0  0
    4.0006   -2.5300   -0.5917 H   0  0  0  0  0  0  0  0  0  0  0  0
   10.0099   -2.8644   -1.0222 H   0  0  0  0  0  0  0  0  0  0  0  0
    8.5833   -3.8544   -1.3116 H   0  0  0  0  0  0  0  0  0  0  0  0
    8.7204   -6.4986    0.0757 H   0  0  0  0  0  0  0  0  0  0  0  0
   11.0250   -7.9173    0.5015 H   0  0  0  0  0  0  0  0  0  0  0  0
   13.0396   -6.0605    0.1427 H   0  0  0  0  0  0  0  0  0  0  0  0
   10.6404   -2.7022    1.5632 H   0  0  0  0  0  0  0  0  0  0  0  0
    9.2274   -2.4170    2.5716 H   0  0  0  0  0  0  0  0  0  0  0  0
   10.3172   -0.6010    0.3678 H   0  0  0  0  0  0  0  0  0  0  0  0
    9.7400   -0.1711    2.0147 H   0  0  0  0  0  0  0  0  0  0  0  0
  1  2  1  0  0  0  0
  1 21  1  0  0  0  0
  1 22  1  0  0  0  0
  1 23  1  0  0  0  0
  2  3  1  0  0  0  0
  2 11  2  0  0  0  0
  3  4  2  0  0  0  0
  3 24  1  0  0  0  0
  4  5  1  0  0  0  0
  4 25  1  0  0  0  0
  5  6  1  0  0  0  0
  5 10  2  0  0  0  0
  6  7  2  0  0  0  0
  6 26  1  0  0  0  0
  7  8  1  0  0  0  0
  7 20  1  0  0  0  0
  8  9  2  0  0  0  0
  8 12  1  0  0  0  0
  9 10  1  0  0  0  0
 10 11  1  0  0  0  0
 11 27  1  0  0  0  0
 12 13  1  0  0  0  0
 12 19  1  0  0  0  0
 13 14  1  0  0  0  0
 13 28  1  0  0  0  0
 13 29  1  0  0  0  0
 14 15  2  0  0  0  0
 14 18  1  0  0  0  0
 15 16  1  0  0  0  0
 15 30  1  0  0  0  0
 16 17  2  0  0  0  0
 16 31  1  0  0  0  0
 17 18  1  0  0  0  0
 17 32  1  0  0  0  0
 19 20  1  0  0  0  0
 19 33  1  0  0  0  0
 19 34  1  0  0  0  0
 20 35  1  0  0  0  0
 20 36  1  0  0  0  0
M  END
>  <Energy>
28.5289

$$$$

 OpenBabel04232614443D

 32 34  0  0  0  0  0  0  0  0999 V2000
    1.1018    0.6639    0.5204 C   0  0  0  0  0  0  0  0  0  0  0  0
    2.4949    0.1829    0.0995 C   0  0  0  0  0  0  0  0  0  0  0  0
    3.5049    1.3266    0.2342 C   0  0  0  0  0  0  0  0  0  0  0  0
    2.8785   -1.0639    0.8630 C   0  0  0  0  0  0  0  0  0  0  0  0
    3.4947   -0.9641    2.0483 N   0  0  0  0  0  0  0  0  0  0  0  0
    3.6336   -2.2330    2.4934 N   0  0  0  0  0  0  0  0  0  0  0  0
    4.2534   -2.6362    3.6796 C   0  0  0  0  0  0  0  0  0  0  0  0
    4.2902   -3.9359    4.0198 C   0  0  0  0  0  0  0  0  0  0  0  0
    3.6408   -4.8974    3.1518 C   0  0  0  0  0  0  0  0  0  0  0  0
    3.0469   -4.5240    2.0033 C   0  0  0  0  0  0  0  0  0  0  0  0
    3.0626   -3.1495    1.6033 C   0  0  0  0  0  0  0  0  0  0  0  0
    2.6395   -2.4247    0.5017 C   0  0  0  0  0  0  0  0  0  0  0  0
    2.0344   -2.9736   -0.7030 C   0  0  0  0  0  0  0  0  0  0  0  0
    2.3835   -4.2120   -1.2280 C   0  0  0  0  0  0  0  0  0  0  0  0
    1.7728   -4.6509   -2.4010 C   0  0  0  0  0  0  0  0  0  0  0  0
    0.8675   -3.8109   -3.0125 C   0  0  0  0  0  0  0  0  0  0  0  0
    0.0964   -4.2353   -4.4782 Cl  0  0  0  0  0  0  0  0  0  0  0  0
    0.5476   -2.6058   -2.5097 N   0  0  0  0  0  0  0  0  0  0  0  0
    1.1339   -2.1907   -1.3372 N   0  0  0  0  0  0  0  0  0  0  0  0
    0.7867    1.5224   -0.0819 H   0  0  0  0  0  0  0  0  0  0  0  0
    1.0848    0.9631    1.5746 H   0  0  0  0  0  0  0  0  0  0  0  0
    0.3537   -0.1258    0.3923 H   0  0  0  0  0  0  0  0  0  0  0  0
    2.4608   -0.0617   -0.9687 H   0  0  0  0  0  0  0  0  0  0  0  0
    3.5842    1.6841    1.2667 H   0  0  0  0  0  0  0  0  0  0  0  0
    3.2045    2.1771   -0.3887 H   0  0  0  0  0  0  0  0  0  0  0  0
    4.5016    1.0104   -0.0921 H   0  0  0  0  0  0  0  0  0  0  0  0
    4.6901   -1.8486    4.2792 H   0  0  0  0  0  0  0  0  0  0  0  0
    4.7652   -4.2793    4.9324 H   0  0  0  0  0  0  0  0  0  0  0  0
    3.6239   -5.9362    3.4699 H   0  0  0  0  0  0  0  0  0  0  0  0
    2.5278   -5.2645    1.4045 H   0  0  0  0  0  0  0  0  0  0  0  0
    3.1360   -4.8354   -0.7591 H   0  0  0  0  0  0  0  0  0  0  0  0
    2.0159   -5.6183   -2.8245 H   0  0  0  0  0  0  0  0  0  0  0  0
  1  2  1  0  0  0  0
  1 20  1  0  0  0  0
  1 21  1  0  0  0  0
  1 22  1  0  0  0  0
  2  3  1  0  0  0  0
  2  4  1  0  0  0  0
  2 23  1  0  0  0  0
  3 24  1  0  0  0  0
  3 25  1  0  0  0  0
  3 26  1  0  0  0  0
  4  5  2  0  0  0  0
  4 12  1  0  0  0  0
  5  6  1  0  0  0  0
  6  7  1  0  0  0  0
  6 11  1  0  0  0  0
  7  8  2  0  0  0  0
  7 27  1  0  0  0  0
  8  9  1  0  0  0  0
  8 28  1  0  0  0  0
  9 10  2  0  0  0  0
  9 29  1  0  0  0  0
 10 11  1  0  0  0  0
 10 30  1  0  0  0  0
 11 12  2  0  0  0  0
 12 13  1  0  0  0  0
 13 14  1  0  0  0  0
 13 19  2  0  0  0  0
 14 15  2  0  0  0  0
 14 31  1  0  0  0  0
 15 16  1  0  0  0  0
 15 32  1  0  0  0  0
 16 17  1  0  0  0  0
 16 18  2  0  0  0  0
 18 19  1  0  0  0  0
M  END
>  <Energy>
66.1873

$$$$

 OpenBabel04232614443D

 35 37  0  0  1  0  0  0  0  0999 V2000
    1.0791   -0.4101   -0.0422 O   0  0  0  0  0  0  0  0  0  0  0  0
    2.2331   -0.0006    0.0717 C   0  0  0  0  0  0  0  0  0  0  0  0
    2.7913    1.0622   -0.6081 N   0  0  0  0  0  0  0  0  0  0  0  0
    2.1872    1.8497   -1.6036 C   0  0  0  0  0  0  0  0  0  0  0  0
    0.8164    1.8205   -1.8752 C   0  0  0  0  0  0  0  0  0  0  0  0
    0.2738    2.5980   -2.9017 C   0  0  0  0  0  0  0  0  0  0  0  0
    1.0988    3.4135   -3.6686 C   0  0  0  0  0  0  0  0  0  0  0  0
    2.4653    3.4618   -3.3993 C   0  0  0  0  0  0  0  0  0  0  0  0
    3.0069    2.6901   -2.3651 C   0  0  0  0  0  0  0  0  0  0  0  0
    3.1432   -0.6227    0.9195 N   0  0  0  0  0  0  0  0  0  0  0  0
    4.3676   -0.0829    1.2505 N   0  0  0  0  0  0  0  0  0  0  0  0
    4.8321   -0.8378    2.1949 C   0  0  0  0  0  0  0  0  0  0  0  0
    3.9724   -1.9870    2.6249 C   0  0  0  0  0  0  0  0  0  0  0  0
    2.8345   -1.8633    1.6232 C   0  0  3  0  0  0  0  0  0  0  0  0
    2.7466   -3.0438    0.6691 C   0  0  0  0  0  0  0  0  0  0  0  0
    1.5599   -3.7891    0.5901 C   0  0  0  0  0  0  0  0  0  0  0  0
    1.4437   -4.8520   -0.3079 C   0  0  0  0  0  0  0  0  0  0  0  0
    2.5104   -5.1835   -1.1399 C   0  0  0  0  0  0  0  0  0  0  0  0
    3.6926   -4.4498   -1.0795 C   0  0  0  0  0  0  0  0  0  0  0  0
    3.8104   -3.3857   -0.1835 C   0  0  0  0  0  0  0  0  0  0  0  0
    3.7821    1.1583   -0.4218 H   0  0  0  0  0  0  0  0  0  0  0  0
    0.1362    1.2032   -1.2976 H   0  0  0  0  0  0  0  0  0  0  0  0
   -0.7945    2.5560   -3.0973 H   0  0  0  0  0  0  0  0  0  0  0  0
    0.6761    4.0080   -4.4738 H   0  0  0  0  0  0  0  0  0  0  0  0
    3.1118    4.0951   -4.0011 H   0  0  0  0  0  0  0  0  0  0  0  0
    4.0769    2.7350   -2.1829 H   0  0  0  0  0  0  0  0  0  0  0  0
    5.7943   -0.6531    2.6943 H   0  0  0  0  0  0  0  0  0  0  0  0
    3.6406   -1.8143    3.6530 H   0  0  0  0  0  0  0  0  0  0  0  0
    4.5351   -2.9231    2.5831 H   0  0  0  0  0  0  0  0  0  0  0  0
    1.8786   -1.7318    2.1462 H   0  0  0  0  0  0  0  0  0  0  0  0
    0.7018   -3.5263    1.2058 H   0  0  0  0  0  0  0  0  0  0  0  0
    0.5121   -5.4085   -0.3709 H   0  0  0  0  0  0  0  0  0  0  0  0
    2.4135   -6.0023   -1.8478 H   0  0  0  0  0  0  0  0  0  0  0  0
    4.5175   -4.6941   -1.7435 H   0  0  0  0  0  0  0  0  0  0  0  0
    4.7308   -2.8061   -0.1771 H   0  0  0  0  0  0  0  0  0  0  0  0
  1  2  2  0  0  0  0
  2  3  1  0  0  0  0
  2 10  1  0  0  0  0
  3  4  1  0  0  0  0
  3 21  1  0  0  0  0
  4  5  1  0  0  0  0
  4  9  2  0  0  0  0
  5  6  2  0  0  0  0
  5 22  1  0  0  0  0
  6  7  1  0  0  0  0
  6 23  1  0  0  0  0
  7  8  2  0  0  0  0
  7 24  1  0  0  0  0
  8  9  1  0  0  0  0
  8 25  1  0  0  0  0
  9 26  1  0  0  0  0
 10 11  1  0  0  0  0
 10 14  1  0  0  0  0
 11 12  2  0  0  0  0
 12 13  1  0  0  0  0
 12 27  1  0  0  0  0
 13 14  1  0  0  0  0
 13 28  1  0  0  0  0
 13 29  1  0  0  0  0
 14 15  1  0  0  0  0
 14 30  1  0  0  0  0
 15 16  1  0  0  0  0
 15 20  2  0  0  0  0
 16 17  2  0  0  0  0
 16 31  1  0  0  0  0
 17 18  1  0  0  0  0
 17 32  1  0  0  0  0
 18 19  2  0  0  0  0
 18 33  1  0  0  0  0
 19 20  1  0  0  0  0
 19 34  1  0  0  0  0
 20 35  1  0  0  0  0
M  END
>  <Energy>
25.4129

$$$$

 OpenBabel04232614443D

 32 34  0  0  0  0  0  0  0  0999 V2000
    1.0941   -0.1390   -0.2680 C   0  0  0  0  0  0  0  0  0  0  0  0
    2.4449    0.2317   -0.0301 O   0  0  0  0  0  0  0  0  0  0  0  0
    3.2305   -0.6263    0.6979 C   0  0  0  0  0  0  0  0  0  0  0  0
    2.8880   -1.9678    0.9223 C   0  0  0  0  0  0  0  0  0  0  0  0
    3.7249   -2.8015    1.6607 C   0  0  0  0  0  0  0  0  0  0  0  0
    4.9400   -2.3228    2.1375 C   0  0  0  0  0  0  0  0  0  0  0  0
    5.3199   -0.9988    1.8932 C   0  0  0  0  0  0  0  0  0  0  0  0
    6.5298   -0.4989    2.3172 O   0  0  0  0  0  0  0  0  0  0  0  0
    7.6003   -1.4285    2.4340 C   0  0  0  0  0  0  0  0  0  0  0  0
    4.4407   -0.1126    1.2215 C   0  0  0  0  0  0  0  0  0  0  0  0
    4.7492    1.3223    1.1379 C   0  0  0  0  0  0  0  0  0  0  0  0
    4.4718    2.2257    0.2062 N   0  0  0  0  0  0  0  0  0  0  0  0
    4.9308    3.4083    0.7392 C   0  0  0  0  0  0  0  0  0  0  0  0
    4.9174    4.7179    0.2467 C   0  0  0  0  0  0  0  0  0  0  0  0
    5.4836    5.7274    1.0434 C   0  0  0  0  0  0  0  0  0  0  0  0
    6.0441    5.4280    2.2879 C   0  0  0  0  0  0  0  0  0  0  0  0
    6.5821    6.4178    3.0144 F   0  0  0  0  0  0  0  0  0  0  0  0
    6.0593    4.1347    2.8040 C   0  0  0  0  0  0  0  0  0  0  0  0
    5.4846    3.1722    1.9856 C   0  0  0  0  0  0  0  0  0  0  0  0
    5.3534    1.8496    2.2562 O   0  0  0  0  0  0  0  0  0  0  0  0
    0.6172    0.6735   -0.8247 H   0  0  0  0  0  0  0  0  0  0  0  0
    0.5561   -0.2609    0.6780 H   0  0  0  0  0  0  0  0  0  0  0  0
    1.0214   -1.0407   -0.8844 H   0  0  0  0  0  0  0  0  0  0  0  0
    1.9671   -2.3957    0.5400 H   0  0  0  0  0  0  0  0  0  0  0  0
    3.4318   -3.8294    1.8590 H   0  0  0  0  0  0  0  0  0  0  0  0
    5.5670   -2.9959    2.7134 H   0  0  0  0  0  0  0  0  0  0  0  0
    8.5320   -0.8580    2.4973 H   0  0  0  0  0  0  0  0  0  0  0  0
    7.6685   -2.0814    1.5569 H   0  0  0  0  0  0  0  0  0  0  0  0
    7.5045   -2.0121    3.3543 H   0  0  0  0  0  0  0  0  0  0  0  0
    4.4790    4.9432   -0.7180 H   0  0  0  0  0  0  0  0  0  0  0  0
    5.4934    6.7587    0.6971 H   0  0  0  0  0  0  0  0  0  0  0  0
    6.4867    3.8962    3.7671 H   0  0  0  0  0  0  0  0  0  0  0  0
  1  2  1  0  0  0  0
  1 21  1  0  0  0  0
  1 22  1  0  0  0  0
  1 23  1  0  0  0  0
  2  3  1  0  0  0  0
  3  4  1  0  0  0  0
  3 10  2  0  0  0  0
  4  5  2  0  0  0  0
  4 24  1  0  0  0  0
  5  6  1  0  0  0  0
  5 25  1  0  0  0  0
  6  7  2  0  0  0  0
  6 26  1  0  0  0  0
  7  8  1  0  0  0  0
  7 10  1  0  0  0  0
  8  9  1  0  0  0  0
  9 27  1  0  0  0  0
  9 28  1  0  0  0  0
  9 29  1  0  0  0  0
 10 11  1  0  0  0  0
 11 12  2  0  0  0  0
 11 20  1  0  0  0  0
 12 13  1  0  0  0  0
 13 14  1  0  0  0  0
 13 19  2  0  0  0  0
 14 15  2  0  0  0  0
 14 30  1  0  0  0  0
 15 16  1  0  0  0  0
 15 31  1  0  0  0  0
 16 17  1  0  0  0  0
 16 18  2  0  0  0  0
 18 19  1  0  0  0  0
 18 32  1  0  0  0  0
 19 20  1  0  0  0  0
M  END
>  <Energy>
64.1869

$$$$

 OpenBabel04232614443D

 43 45  0  0  0  0  0  0  0  0999 V2000
    3.6564    0.0143    1.0926 C   0  0  0  0  0  0  0  0  0  0  0  0
    2.5808    0.0190    0.0030 C   0  0  0  0  0  0  0  0  0  0  0  0
    1.2185    0.3530    0.6238 C   0  0  0  0  0  0  0  0  0  0  0  0
    2.9629    0.9575   -1.1390 C   0  0  0  0  0  0  0  0  0  0  0  0
    2.5364    2.2467   -1.0150 N   0  0  0  0  0  0  0  0  0  0  0  0
    2.8469    3.1907   -1.9410 C   0  0  0  0  0  0  0  0  0  0  0  0
    2.3249    4.4536   -1.7414 N   0  0  0  0  0  0  0  0  0  0  0  0
    2.9935    5.7039   -2.0962 C   0  0  0  0  0  0  0  0  0  0  0  0
    2.6420    6.6532   -0.9576 C   0  0  0  0  0  0  0  0  0  0  0  0
    1.2572    6.1920   -0.5430 C   0  0  0  0  0  0  0  0  0  0  0  0
    1.3228    4.6714   -0.6975 C   0  0  0  0  0  0  0  0  0  0  0  0
    3.6278    2.8305   -3.0459 C   0  0  0  0  0  0  0  0  0  0  0  0
    3.9119    3.7730   -4.0920 C   0  0  0  0  0  0  0  0  0  0  0  0
    4.1824    4.5094   -4.9432 N   0  0  0  0  0  0  0  0  0  0  0  0
    4.1048    1.5040   -3.1824 C   0  0  0  0  0  0  0  0  0  0  0  0
    3.7429    0.5351   -2.2273 C   0  0  0  0  0  0  0  0  0  0  0  0
    4.2255   -0.8928   -2.3607 C   0  0  0  0  0  0  0  0  0  0  0  0
    4.7203   -1.2589   -3.7598 C   0  0  0  0  0  0  0  0  0  0  0  0
    5.6685   -0.1946   -4.2743 C   0  0  0  0  0  0  0  0  0  0  0  0
    4.9315    1.1316   -4.4016 C   0  0  0  0  0  0  0  0  0  0  0  0
    3.3636   -0.6382    1.9233 H   0  0  0  0  0  0  0  0  0  0  0  0
    3.8241    1.0187    1.4970 H   0  0  0  0  0  0  0  0  0  0  0  0
    4.6124   -0.3536    0.7069 H   0  0  0  0  0  0  0  0  0  0  0  0
    2.4788   -1.0002   -0.3815 H   0  0  0  0  0  0  0  0  0  0  0  0
    1.2396    1.3023    1.1706 H   0  0  0  0  0  0  0  0  0  0  0  0
    0.9236   -0.4295    1.3335 H   0  0  0  0  0  0  0  0  0  0  0  0
    0.4387    0.4168   -0.1426 H   0  0  0  0  0  0  0  0  0  0  0  0
    2.5771    6.0811   -3.0376 H   0  0  0  0  0  0  0  0  0  0  0  0
    4.0821    5.6217   -2.1818 H   0  0  0  0  0  0  0  0  0  0  0  0
    2.6678    7.7021   -1.2677 H   0  0  0  0  0  0  0  0  0  0  0  0
    3.3488    6.5227   -0.1297 H   0  0  0  0  0  0  0  0  0  0  0  0
    0.5034    6.6130   -1.2187 H   0  0  0  0  0  0  0  0  0  0  0  0
    1.0054    6.4941    0.4778 H   0  0  0  0  0  0  0  0  0  0  0  0
    0.3487    4.2774   -1.0070 H   0  0  0  0  0  0  0  0  0  0  0  0
    1.6093    4.2168    0.2572 H   0  0  0  0  0  0  0  0  0  0  0  0
    3.4210   -1.5954   -2.1211 H   0  0  0  0  0  0  0  0  0  0  0  0
    5.0386   -1.0493   -1.6417 H   0  0  0  0  0  0  0  0  0  0  0  0
    3.8677   -1.3548   -4.4445 H   0  0  0  0  0  0  0  0  0  0  0  0
    5.2215   -2.2324   -3.7334 H   0  0  0  0  0  0  0  0  0  0  0  0
    6.0739   -0.4833   -5.2513 H   0  0  0  0  0  0  0  0  0  0  0  0
    6.5199   -0.0888   -3.5902 H   0  0  0  0  0  0  0  0  0  0  0  0
    4.2551    1.0849   -5.2650 H   0  0  0  0  0  0  0  0  0  0  0  0
    5.6827    1.9046   -4.6037 H   0  0  0  0  0  0  0  0  0  0  0  0
  1  2  1  0  0  0  0
  1 21  1  0  0  0  0
  1 22  1  0  0  0  0
  1 23  1  0  0  0  0
  2  3  1  0  0  0  0
  2  4  1  0  0  0  0
  2 24  1  0  0  0  0
  3 25  1  0  0  0  0
  3 26  1  0  0  0  0
  3 27  1  0  0  0  0
  4  5  1  0  0  0  0
  4 16  2  0  0  0  0
  5  6  2  0  0  0  0
  6  7  1  0  0  0  0
  6 12  1  0  0  0  0
  7  8  1  0  0  0  0
  7 11  1  0  0  0  0
  8  9  1  0  0  0  0
  8 28  1  0  0  0  0
  8 29  1  0  0  0  0
  9 10  1  0  0  0  0
  9 30  1  0  0  0  0
  9 31  1  0  0  0  0
 10 11  1  0  0  0  0
 10 32  1  0  0  0  0
 10 33  1  0  0  0  0
 11 34  1  0  0  0  0
 11 35  1  0  0  0  0
 12 13  1  0  0  0  0
 12 15  2  0  0  0  0
 13 14  3  0  0  0  0
 15 16  1  0  0  0  0
 15 20  1  0  0  0  0
 16 17  1  0  0  0  0
 17 18  1  0  0  0  0
 17 36  1  0  0  0  0
 17 37  1  0  0  0  0
 18 19  1  0  0  0  0
 18 38  1  0  0  0  0
 18 39  1  0  0  0  0
 19 20  1  0  0  0  0
 19 40  1  0  0  0  0
 19 41  1  0  0  0  0
 20 42  1  0  0  0  0
 20 43  1  0  0  0  0
M  END
>  <Energy>
30.8951

$$$$

 OpenBabel04232614443D

 29 31  0  0  0  0  0  0  0  0999 V2000
    1.0870   -0.0833   -0.0501 C   0  0  0  0  0  0  0  0  0  0  0  0
    2.5305   -0.1402   -0.0113 N   0  0  0  0  0  0  0  0  0  0  0  0
    3.2250    1.0207   -0.0506 N   0  0  0  0  0  0  0  0  0  0  0  0
    4.5175    0.6523   -0.0612 C   0  0  0  0  0  0  0  0  0  0  0  0
    5.6757    1.4460   -0.0799 C   0  0  0  0  0  0  0  0  0  0  0  0
    6.8636    0.6957   -0.0829 C   0  0  0  0  0  0  0  0  0  0  0  0
    6.8407   -0.7130   -0.0759 C   0  0  0  0  0  0  0  0  0  0  0  0
    5.7409   -1.5144   -0.0489 N   0  0  0  0  0  0  0  0  0  0  0  0
    4.5970   -0.7865   -0.0448 C   0  0  0  0  0  0  0  0  0  0  0  0
    3.3127   -1.2709   -0.0102 C   0  0  0  0  0  0  0  0  0  0  0  0
    2.8159   -2.5443    0.0350 N   0  0  0  0  0  0  0  0  0  0  0  0
    3.4004   -3.6348   -0.6535 C   0  0  0  0  0  0  0  0  0  0  0  0
    3.2613   -4.9310   -0.1372 C   0  0  0  0  0  0  0  0  0  0  0  0
    3.7728   -6.0324   -0.8322 C   0  0  0  0  0  0  0  0  0  0  0  0
    4.4739   -5.8350   -2.0183 C   0  0  0  0  0  0  0  0  0  0  0  0
    4.9504   -6.9034   -2.6734 F   0  0  0  0  0  0  0  0  0  0  0  0
    4.6683   -4.5525   -2.5174 C   0  0  0  0  0  0  0  0  0  0  0  0
    5.5791   -4.2871   -3.9544 Cl  0  0  0  0  0  0  0  0  0  0  0  0
    4.1119   -3.4625   -1.8521 C   0  0  0  0  0  0  0  0  0  0  0  0
    0.7617    0.9597   -0.0609 H   0  0  0  0  0  0  0  0  0  0  0  0
    0.7007   -0.5795    0.8367 H   0  0  0  0  0  0  0  0  0  0  0  0
    0.7421   -0.5868   -0.9571 H   0  0  0  0  0  0  0  0  0  0  0  0
    5.6501    2.5252   -0.0813 H   0  0  0  0  0  0  0  0  0  0  0  0
    7.8237    1.2049   -0.0889 H   0  0  0  0  0  0  0  0  0  0  0  0
    7.7788   -1.2664   -0.0918 H   0  0  0  0  0  0  0  0  0  0  0  0
    1.8280   -2.7125    0.2014 H   0  0  0  0  0  0  0  0  0  0  0  0
    2.7758   -5.0899    0.8233 H   0  0  0  0  0  0  0  0  0  0  0  0
    3.6356   -7.0418   -0.4559 H   0  0  0  0  0  0  0  0  0  0  0  0
    4.2351   -2.4699   -2.2751 H   0  0  0  0  0  0  0  0  0  0  0  0
  1  2  1  0  0  0  0
  1 20  1  0  0  0  0
  1 21  1  0  0  0  0
  1 22  1  0  0  0  0
  2  3  1  0  0  0  0
  2 10  1  0  0  0  0
  3  4  2  0  0  0  0
  4  5  1  0  0  0  0
  4  9  1  0  0  0  0
  5  6  2  0  0  0  0
  5 23  1  0  0  0  0
  6  7  1  0  0  0  0
  6 24  1  0  0  0  0
  7  8  2  0  0  0  0
  7 25  1  0  0  0  0
  8  9  1  0  0  0  0
  9 10  2  0  0  0  0
 10 11  1  0  0  0  0
 11 12  1  0  0  0  0
 11 26  1  0  0  0  0
 12 13  1  0  0  0  0
 12 19  2  0  0  0  0
 13 14  2  0  0  0  0
 13 27  1  0  0  0  0
 14 15  1  0  0  0  0
 14 28  1  0  0  0  0
 15 16  1  0  0  0  0
 15 17  2  0  0  0  0
 17 18  1  0  0  0  0
 17 19  1  0  0  0  0
 19 29  1  0  0  0  0
M  END
>  <Energy>
86.8432

$$$$

 OpenBabel04232614443D

 32 34  0  0  0  0  0  0  0  0999 V2000
    1.1047    0.3896    0.1360 C   0  0  0  0  0  0  0  0  0  0  0  0
    2.5861    0.1673    0.2053 C   0  0  0  0  0  0  0  0  0  0  0  0
    3.3095    1.3425    0.3708 O   0  0  0  0  0  0  0  0  0  0  0  0
    4.6696    1.2885    0.2033 C   0  0  0  0  0  0  0  0  0  0  0  0
    5.3556    2.4937    0.0603 C   0  0  0  0  0  0  0  0  0  0  0  0
    6.7357    2.4676   -0.1380 C   0  0  0  0  0  0  0  0  0  0  0  0
    7.4528    3.6158   -0.2958 O   0  0  0  0  0  0  0  0  0  0  0  0
    7.4350    1.2639   -0.1876 C   0  0  0  0  0  0  0  0  0  0  0  0
    6.7502    0.0622   -0.0193 C   0  0  0  0  0  0  0  0  0  0  0  0
    5.3661    0.0852    0.1760 C   0  0  0  0  0  0  0  0  0  0  0  0
    4.6133   -1.1576    0.3508 C   0  0  0  0  0  0  0  0  0  0  0  0
    5.1925   -2.1907    0.6653 O   0  0  0  0  0  0  0  0  0  0  0  0
    3.1418   -1.0594    0.1280 C   0  0  0  0  0  0  0  0  0  0  0  0
    2.3605   -2.1898   -0.1092 O   0  0  0  0  0  0  0  0  0  0  0  0
    2.9194   -3.2307   -0.8170 C   0  0  0  0  0  0  0  0  0  0  0  0
    2.6966   -4.5171   -0.3279 C   0  0  0  0  0  0  0  0  0  0  0  0
    3.2916   -5.6117   -0.9563 C   0  0  0  0  0  0  0  0  0  0  0  0
    4.0954   -5.4198   -2.0806 C   0  0  0  0  0  0  0  0  0  0  0  0
    4.2765   -4.1380   -2.6000 C   0  0  0  0  0  0  0  0  0  0  0  0
    3.6707   -3.0428   -1.9821 C   0  0  0  0  0  0  0  0  0  0  0  0
    0.8332    1.3358    0.6178 H   0  0  0  0  0  0  0  0  0  0  0  0
    0.5526   -0.4009    0.6554 H   0  0  0  0  0  0  0  0  0  0  0  0
    0.7714    0.4316   -0.9053 H   0  0  0  0  0  0  0  0  0  0  0  0
    4.8089    3.4292    0.0965 H   0  0  0  0  0  0  0  0  0  0  0  0
    6.8559    4.3778   -0.2087 H   0  0  0  0  0  0  0  0  0  0  0  0
    8.5084    1.2621   -0.3526 H   0  0  0  0  0  0  0  0  0  0  0  0
    7.2862   -0.8838   -0.0514 H   0  0  0  0  0  0  0  0  0  0  0  0
    2.0912   -4.6638    0.5616 H   0  0  0  0  0  0  0  0  0  0  0  0
    3.1467   -6.6112   -0.5557 H   0  0  0  0  0  0  0  0  0  0  0  0
    4.5855   -6.2695   -2.5488 H   0  0  0  0  0  0  0  0  0  0  0  0
    4.9043   -3.9901   -3.4747 H   0  0  0  0  0  0  0  0  0  0  0  0
    3.8210   -2.0514   -2.3973 H   0  0  0  0  0  0  0  0  0  0  0  0
  1  2  1  0  0  0  0
  1 21  1  0  0  0  0
  1 22  1  0  0  0  0
  1 23  1  0  0  0  0
  2  3  1  0  0  0  0
  2 13  2  0  0  0  0
  3  4  1  0  0  0  0
  4  5  1  0  0  0  0
  4 10  2  0  0  0  0
  5  6  2  0  0  0  0
  5 24  1  0  0  0  0
  6  7  1  0  0  0  0
  6  8  1  0  0  0  0
  7 25  1  0  0  0  0
  8  9  2  0  0  0  0
  8 26  1  0  0  0  0
  9 10  1  0  0  0  0
  9 27  1  0  0  0  0
 10 11  1  0  0  0  0
 11 12  2  0  0  0  0
 11 13  1  0  0  0  0
 13 14  1  0  0  0  0
 14 15  1  0  0  0  0
 15 16  1  0  0  0  0
 15 20  2  0  0  0  0
 16 17  2  0  0  0  0
 16 28  1  0  0  0  0
 17 18  1  0  0  0  0
 17 29  1  0  0  0  0
 18 19  2  0  0  0  0
 18 30  1  0  0  0  0
 19 20  1  0  0  0  0
 19 31  1  0  0  0  0
 20 32  1  0  0  0  0
M  END
>  <Energy>
65.6827

$$$$

 OpenBabel04232614443D

 33 36  0  0  0  0  0  0  0  0999 V2000
    0.9410   -0.0665    0.1920 C   0  0  0  0  0  0  0  0  0  0  0  0
    2.3788    0.0178    0.0751 N   0  0  0  0  0  0  0  0  0  0  0  0
    3.0958    1.1945    0.0726 C   0  0  0  0  0  0  0  0  0  0  0  0
    2.7128    2.5411    0.0758 C   0  0  0  0  0  0  0  0  0  0  0  0
    3.7282    3.5038    0.0853 C   0  0  0  0  0  0  0  0  0  0  0  0
    5.0823    3.1472    0.0954 C   0  0  0  0  0  0  0  0  0  0  0  0
    6.0945    4.1191    0.1029 C   0  0  0  0  0  0  0  0  0  0  0  0
    7.4416    3.7487    0.1103 C   0  0  0  0  0  0  0  0  0  0  0  0
    7.7999    2.4009    0.1122 C   0  0  0  0  0  0  0  0  0  0  0  0
    6.8118    1.4147    0.1066 C   0  0  0  0  0  0  0  0  0  0  0  0
    5.4497    1.7787    0.0963 C   0  0  0  0  0  0  0  0  0  0  0  0
    4.4271    0.7911    0.0814 C   0  0  0  0  0  0  0  0  0  0  0  0
    4.5081   -0.5867    0.0712 N   0  0  0  0  0  0  0  0  0  0  0  0
    3.2672   -1.0437    0.0165 C   0  0  0  0  0  0  0  0  0  0  0  0
    2.9138   -2.4674   -0.0503 C   0  0  0  0  0  0  0  0  0  0  0  0
    3.6557   -3.4172    0.6573 C   0  0  0  0  0  0  0  0  0  0  0  0
    3.3121   -4.7695    0.5902 C   0  0  0  0  0  0  0  0  0  0  0  0
    2.2318   -5.1376   -0.1922 C   0  0  0  0  0  0  0  0  0  0  0  0
    1.4988   -4.2609   -0.9086 N   0  0  0  0  0  0  0  0  0  0  0  0
    1.8728   -2.9580   -0.8354 C   0  0  0  0  0  0  0  0  0  0  0  0
    0.5320    0.8941    0.5116 H   0  0  0  0  0  0  0  0  0  0  0  0
    0.6869   -0.8200    0.9412 H   0  0  0  0  0  0  0  0  0  0  0  0
    0.5277   -0.3216   -0.7857 H   0  0  0  0  0  0  0  0  0  0  0  0
    1.6717    2.8452    0.0656 H   0  0  0  0  0  0  0  0  0  0  0  0
    3.4438    4.5548    0.0842 H   0  0  0  0  0  0  0  0  0  0  0  0
    5.8415    5.1774    0.1012 H   0  0  0  0  0  0  0  0  0  0  0  0
    8.2130    4.5152    0.1122 H   0  0  0  0  0  0  0  0  0  0  0  0
    8.8488    2.1172    0.1178 H   0  0  0  0  0  0  0  0  0  0  0  0
    7.0940    0.3639    0.1077 H   0  0  0  0  0  0  0  0  0  0  0  0
    4.5072   -3.1057    1.2595 H   0  0  0  0  0  0  0  0  0  0  0  0
    3.8806   -5.5154    1.1349 H   0  0  0  0  0  0  0  0  0  0  0  0
    1.9202   -6.1767   -0.2682 H   0  0  0  0  0  0  0  0  0  0  0  0
    1.2875   -2.3068   -1.4762 H   0  0  0  0  0  0  0  0  0  0  0  0
  1  2  1  0  0  0  0
  1 21  1  0  0  0  0
  1 22  1  0  0  0  0
  1 23  1  0  0  0  0
  2  3  1  0  0  0  0
  2 14  1  0  0  0  0
  3  4  1  0  0  0  0
  3 12  2  0  0  0  0
  4  5  2  0  0  0  0
  4 24  1  0  0  0  0
  5  6  1  0  0  0  0
  5 25  1  0  0  0  0
  6  7  1  0  0  0  0
  6 11  2  0  0  0  0
  7  8  2  0  0  0  0
  7 26  1  0  0  0  0
  8  9  1  0  0  0  0
  8 27  1  0  0  0  0
  9 10  2  0  0  0  0
  9 28  1  0  0  0  0
 10 11  1  0  0  0  0
 10 29  1  0  0  0  0
 11 12  1  0  0  0  0
 12 13  1  0  0  0  0
 13 14  2  0  0  0  0
 14 15  1  0  0  0  0
 15 16  1  0  0  0  0
 15 20  2  0  0  0  0
 16 17  2  0  0  0  0
 16 30  1  0  0  0  0
 17 18  1  0  0  0  0
 17 31  1  0  0  0  0
 18 19  2  0  0  0  0
 18 32  1  0  0  0  0
 19 20  1  0  0  0  0
 20 33  1  0  0  0  0
M  END
>  <Energy>
67.6571

$$$$

 OpenBabel04232614443D

 39 41  0  0  0  0  0  0  0  0999 V2000
    0.7978   -0.6343   -0.5660 C   0  0  0  0  0  0  0  0  0  0  0  0
    2.3164   -0.6129   -0.5221 C   0  0  0  0  0  0  0  0  0  0  0  0
    2.8612   -1.4048    0.6668 C   0  0  0  0  0  0  0  0  0  0  0  0
    4.3908   -1.3627    0.6881 C   0  0  0  0  0  0  0  0  0  0  0  0
    4.9655   -2.1303    1.8909 C   0  0  0  0  0  0  0  0  0  0  0  0
    6.4764   -2.1436    1.9323 C   0  0  0  0  0  0  0  0  0  0  0  0
    7.2922   -3.4146    1.8757 C   0  0  0  0  0  0  0  0  0  0  0  0
    6.6169   -4.7762    1.8985 C   0  0  0  0  0  0  0  0  0  0  0  0
    8.5886   -3.4680    1.8320 N   0  0  0  0  0  0  0  0  0  0  0  0
    9.2764   -2.2988    1.8540 C   0  0  0  0  0  0  0  0  0  0  0  0
   10.5807   -2.1396    1.8143 N   0  0  0  0  0  0  0  0  0  0  0  0
   10.7939   -0.7932    1.8573 C   0  0  0  0  0  0  0  0  0  0  0  0
   12.0178   -0.1046    1.8340 C   0  0  0  0  0  0  0  0  0  0  0  0
   12.0157    1.2918    1.8573 C   0  0  0  0  0  0  0  0  0  0  0  0
   10.8140    1.9914    1.9133 C   0  0  0  0  0  0  0  0  0  0  0  0
    9.5832    1.3230    1.9633 C   0  0  0  0  0  0  0  0  0  0  0  0
    9.5941   -0.0837    1.9276 C   0  0  0  0  0  0  0  0  0  0  0  0
    8.6186   -1.0757    1.9418 N   0  0  0  0  0  0  0  0  0  0  0  0
    7.2144   -1.0117    2.0025 C   0  0  0  0  0  0  0  0  0  0  0  0
    6.5614    0.2059    2.1183 O   0  0  0  0  0  0  0  0  0  0  0  0
    0.4380   -0.0651   -1.4290 H   0  0  0  0  0  0  0  0  0  0  0  0
    0.3729   -0.1859    0.3375 H   0  0  0  0  0  0  0  0  0  0  0  0
    0.4222   -1.6583   -0.6533 H   0  0  0  0  0  0  0  0  0  0  0  0
    2.6581    0.4272   -0.4643 H   0  0  0  0  0  0  0  0  0  0  0  0
    2.7094   -1.0307   -1.4565 H   0  0  0  0  0  0  0  0  0  0  0  0
    2.5189   -2.4445    0.6096 H   0  0  0  0  0  0  0  0  0  0  0  0
    2.4682   -0.9835    1.6010 H   0  0  0  0  0  0  0  0  0  0  0  0
    4.7005   -0.3134    0.7098 H   0  0  0  0  0  0  0  0  0  0  0  0
    4.7836   -1.7904   -0.2431 H   0  0  0  0  0  0  0  0  0  0  0  0
    4.5461   -3.1344    1.8516 H   0  0  0  0  0  0  0  0  0  0  0  0
    4.5897   -1.6964    2.8268 H   0  0  0  0  0  0  0  0  0  0  0  0
    5.5397   -4.7559    2.0251 H   0  0  0  0  0  0  0  0  0  0  0  0
    7.0309   -5.3561    2.7306 H   0  0  0  0  0  0  0  0  0  0  0  0
    6.8475   -5.2999    0.9652 H   0  0  0  0  0  0  0  0  0  0  0  0
   12.9481   -0.6617    1.7933 H   0  0  0  0  0  0  0  0  0  0  0  0
   12.9592    1.8312    1.8319 H   0  0  0  0  0  0  0  0  0  0  0  0
   10.8314    3.0804    1.9255 H   0  0  0  0  0  0  0  0  0  0  0  0
    8.6775    1.9113    2.0308 H   0  0  0  0  0  0  0  0  0  0  0  0
    7.0771    0.8754    1.6432 H   0  0  0  0  0  0  0  0  0  0  0  0
  1  2  1  0  0  0  0
  1 21  1  0  0  0  0
  1 22  1  0  0  0  0
  1 23  1  0  0  0  0
  2  3  1  0  0  0  0
  2 24  1  0  0  0  0
  2 25  1  0  0  0  0
  3  4  1  0  0  0  0
  3 26  1  0  0  0  0
  3 27  1  0  0  0  0
  4  5  1  0  0  0  0
  4 28  1  0  0  0  0
  4 29  1  0  0  0  0
  5  6  1  0  0  0  0
  5 30  1  0  0  0  0
  5 31  1  0  0  0  0
  6  7  1  0  0  0  0
  6 19  2  0  0  0  0
  7  8  1  0  0  0  0
  7  9  2  0  0  0  0
  8 32  1  0  0  0  0
  8 33  1  0  0  0  0
  8 34  1  0  0  0  0
  9 10  1  0  0  0  0
 10 11  2  0  0  0  0
 10 18  1  0  0  0  0
 11 12  1  0  0  0  0
 12 13  1  0  0  0  0
 12 17  2  0  0  0  0
 13 14  2  0  0  0  0
 13 35  1  0  0  0  0
 14 15  1  0  0  0  0
 14 36  1  0  0  0  0
 15 16  2  0  0  0  0
 15 37  1  0  0  0  0
 16 17  1  0  0  0  0
 16 38  1  0  0  0  0
 17 18  1  0  0  0  0
 18 19  1  0  0  0  0
 19 20  1  0  0  0  0
 20 39  1  0  0  0  0
M  END
>  <Energy>
57.546

$$$$

 OpenBabel04232614443D

 34 36  0  0  0  0  0  0  0  0999 V2000
    0.9974   -0.1307   -0.0138 C   0  0  0  0  0  0  0  0  0  0  0  0
    2.4858   -0.1321   -0.0159 C   0  0  0  0  0  0  0  0  0  0  0  0
    3.2170    0.9625   -0.0495 N   0  0  0  0  0  0  0  0  0  0  0  0
    4.5128    0.5428   -0.0779 C   0  0  0  0  0  0  0  0  0  0  0  0
    5.6792    1.3239   -0.0857 C   0  0  0  0  0  0  0  0  0  0  0  0
    6.9233    0.6903   -0.0772 C   0  0  0  0  0  0  0  0  0  0  0  0
    7.0036   -0.6989   -0.0476 C   0  0  0  0  0  0  0  0  0  0  0  0
    5.8497   -1.4943   -0.0347 C   0  0  0  0  0  0  0  0  0  0  0  0
    4.5991   -0.8487   -0.0783 C   0  0  0  0  0  0  0  0  0  0  0  0
    3.2692   -1.2866   -0.0677 N   0  0  0  0  0  0  0  0  0  0  0  0
    2.7627   -2.6010   -0.0785 C   0  0  0  0  0  0  0  0  0  0  0  0
    1.6381   -2.8290    0.3500 O   0  0  0  0  0  0  0  0  0  0  0  0
    3.6083   -3.6358   -0.7123 C   0  0  0  0  0  0  0  0  0  0  0  0
    3.3560   -4.9332   -0.4796 C   0  0  0  0  0  0  0  0  0  0  0  0
    4.1401   -5.9609   -1.1594 C   0  0  0  0  0  0  0  0  0  0  0  0
    5.3549   -6.3984   -0.6218 C   0  0  0  0  0  0  0  0  0  0  0  0
    6.1343   -7.3246   -1.3175 C   0  0  0  0  0  0  0  0  0  0  0  0
    5.7025   -7.8160   -2.5492 C   0  0  0  0  0  0  0  0  0  0  0  0
    4.4857   -7.3925   -3.0820 C   0  0  0  0  0  0  0  0  0  0  0  0
    3.7044   -6.4673   -2.3884 C   0  0  0  0  0  0  0  0  0  0  0  0
    0.6226    0.8968   -0.0673 H   0  0  0  0  0  0  0  0  0  0  0  0
    0.6024   -0.5778    0.9025 H   0  0  0  0  0  0  0  0  0  0  0  0
    0.6065   -0.6688   -0.8830 H   0  0  0  0  0  0  0  0  0  0  0  0
    5.6026    2.4066   -0.0849 H   0  0  0  0  0  0  0  0  0  0  0  0
    7.8307    1.2891   -0.0774 H   0  0  0  0  0  0  0  0  0  0  0  0
    7.9821   -1.1755   -0.0231 H   0  0  0  0  0  0  0  0  0  0  0  0
    5.9537   -2.5719    0.0259 H   0  0  0  0  0  0  0  0  0  0  0  0
    4.3764   -3.3291   -1.4118 H   0  0  0  0  0  0  0  0  0  0  0  0
    2.5647   -5.2701    0.1853 H   0  0  0  0  0  0  0  0  0  0  0  0
    5.7049   -6.0192    0.3352 H   0  0  0  0  0  0  0  0  0  0  0  0
    7.0814   -7.6589   -0.9018 H   0  0  0  0  0  0  0  0  0  0  0  0
    6.3147   -8.5297   -3.0948 H   0  0  0  0  0  0  0  0  0  0  0  0
    4.1478   -7.7771   -4.0409 H   0  0  0  0  0  0  0  0  0  0  0  0
    2.7606   -6.1380   -2.8173 H   0  0  0  0  0  0  0  0  0  0  0  0
  1  2  1  0  0  0  0
  1 21  1  0  0  0  0
  1 22  1  0  0  0  0
  1 23  1  0  0  0  0
  2  3  2  0  0  0  0
  2 10  1  0  0  0  0
  3  4  1  0  0  0  0
  4  5  1  0  0  0  0
  4  9  2  0  0  0  0
  5  6  2  0  0  0  0
  5 24  1  0  0  0  0
  6  7  1  0  0  0  0
  6 25  1  0  0  0  0
  7  8  2  0  0  0  0
  7 26  1  0  0  0  0
  8  9  1  0  0  0  0
  8 27  1  0  0  0  0
  9 10  1  0  0  0  0
 10 11  1  0  0  0  0
 11 12  2  0  0  0  0
 11 13  1  0  0  0  0
 13 14  2  0  0  0  0
 13 28  1  0  0  0  0
 14 15  1  0  0  0  0
 14 29  1  0  0  0  0
 15 16  1  0  0  0  0
 15 20  2  0  0  0  0
 16 17  2  0  0  0  0
 16 30  1  0  0  0  0
 17 18  1  0  0  0  0
 17 31  1  0  0  0  0
 18 19  2  0  0  0  0
 18 32  1  0  0  0  0
 19 20  1  0  0  0  0
 19 33  1  0  0  0  0
 20 34  1  0  0  0  0
M  END
>  <Energy>
68.6446

$$$$

 OpenBabel04232614443D

 26 28  0  0  0  0  0  0  0  0999 V2000
    1.7305    1.8744    0.0360 O   0  0  0  0  0  0  0  0  0  0  0  0
    1.3137    0.7223    0.0187 C   0  0  0  0  0  0  0  0  0  0  0  0
    2.1564   -0.3381    0.0144 O   0  0  0  0  0  0  0  0  0  0  0  0
    1.6568   -1.5922   -0.0074 C   0  0  0  0  0  0  0  0  0  0  0  0
    2.7473   -2.6033   -0.0007 C   0  0  0  0  0  0  0  0  0  0  0  0
    4.1023   -2.2411    0.0156 C   0  0  0  0  0  0  0  0  0  0  0  0
    5.0941   -3.2278    0.0351 C   0  0  0  0  0  0  0  0  0  0  0  0
    4.7360   -4.5750    0.0374 C   0  0  0  0  0  0  0  0  0  0  0  0
    5.9577   -5.7850    0.0688 Cl  0  0  0  0  0  0  0  0  0  0  0  0
    3.3940   -4.9474    0.0166 C   0  0  0  0  0  0  0  0  0  0  0  0
    2.4017   -3.9636   -0.0028 C   0  0  0  0  0  0  0  0  0  0  0  0
    0.4070   -1.9195   -0.0261 N   0  0  0  0  0  0  0  0  0  0  0  0
   -0.5227   -0.8851   -0.0186 C   0  0  0  0  0  0  0  0  0  0  0  0
   -1.8853   -1.1880   -0.0286 C   0  0  0  0  0  0  0  0  0  0  0  0
   -2.8377   -0.1662   -0.0153 C   0  0  0  0  0  0  0  0  0  0  0  0
   -2.4300    1.1676    0.0066 C   0  0  0  0  0  0  0  0  0  0  0  0
   -1.0702    1.4772    0.0160 C   0  0  0  0  0  0  0  0  0  0  0  0
   -0.1270    0.4429    0.0044 C   0  0  0  0  0  0  0  0  0  0  0  0
    4.4072   -1.1969    0.0159 H   0  0  0  0  0  0  0  0  0  0  0  0
    6.1419   -2.9377    0.0505 H   0  0  0  0  0  0  0  0  0  0  0  0
    3.1115   -5.9970    0.0175 H   0  0  0  0  0  0  0  0  0  0  0  0
    1.3564   -4.2678   -0.0167 H   0  0  0  0  0  0  0  0  0  0  0  0
   -2.2036   -2.2273   -0.0449 H   0  0  0  0  0  0  0  0  0  0  0  0
   -3.8967   -0.4133   -0.0212 H   0  0  0  0  0  0  0  0  0  0  0  0
   -3.1706    1.9638    0.0171 H   0  0  0  0  0  0  0  0  0  0  0  0
   -0.7484    2.5162    0.0341 H   0  0  0  0  0  0  0  0  0  0  0  0
  1  2  2  0  0  0  0
  2  3  1  0  0  0  0
  2 18  1  0  0  0  0
  3  4  1  0  0  0  0
  4  5  1  0  0  0  0
  4 12  2  0  0  0  0
  5  6  1  0  0  0  0
  5 11  2  0  0  0  0
  6  7  2  0  0  0  0
  6 19  1  0  0  0  0
  7  8  1  0  0  0  0
  7 20  1  0  0  0  0
  8  9  1  0  0  0  0
  8 10  2  0  0  0  0
 10 11  1  0  0  0  0
 10 21  1  0  0  0  0
 11 22  1  0  0  0  0
 12 13  1  0  0  0  0
 13 14  1  0  0  0  0
 13 18  2  0  0  0  0
 14 15  2  0  0  0  0
 14 23  1  0  0  0  0
 15 16  1  0  0  0  0
 15 24  1  0  0  0  0
 16 17  2  0  0  0  0
 16 25  1  0  0  0  0
 17 18  1  0  0  0  0
 17 26  1  0  0  0  0
M  END
>  <Energy>
41.4856

$$$$

 OpenBabel04232614443D

 29 31  0  0  0  0  0  0  0  0999 V2000
    1.1709    0.2298   -0.0672 C   0  0  0  0  0  0  0  0  0  0  0  0
    2.6463   -0.0096   -0.0781 C   0  0  0  0  0  0  0  0  0  0  0  0
    3.7254    1.3185   -0.0772 S   0  0  0  0  0  0  0  0  0  0  0  0
    5.0863    0.3022   -0.1076 C   0  0  0  0  0  0  0  0  0  0  0  0
    6.3444    0.7924   -0.1144 N   0  0  0  0  0  0  0  0  0  0  0  0
    7.2655   -0.1179   -0.1040 C   0  0  0  0  0  0  0  0  0  0  0  0
    8.7175    0.1852   -0.0930 C   0  0  0  0  0  0  0  0  0  0  0  0
    9.6486   -0.7467    0.3914 C   0  0  0  0  0  0  0  0  0  0  0  0
   11.0106   -0.4421    0.3980 C   0  0  0  0  0  0  0  0  0  0  0  0
   11.4503    0.7912   -0.0784 C   0  0  0  0  0  0  0  0  0  0  0  0
   10.5304    1.7244   -0.5576 C   0  0  0  0  0  0  0  0  0  0  0  0
    9.1649    1.4262   -0.5610 C   0  0  0  0  0  0  0  0  0  0  0  0
    7.0925   -1.4648   -0.1228 O   0  0  0  0  0  0  0  0  0  0  0  0
    5.8255   -1.9783   -0.1384 C   0  0  0  0  0  0  0  0  0  0  0  0
    5.6569   -3.1927   -0.1661 O   0  0  0  0  0  0  0  0  0  0  0  0
    4.7385   -1.0238   -0.1138 C   0  0  0  0  0  0  0  0  0  0  0  0
    3.3117   -1.2288   -0.0899 C   0  0  0  0  0  0  0  0  0  0  0  0
    2.6111   -2.5517   -0.0803 C   0  0  0  0  0  0  0  0  0  0  0  0
    0.9168    1.2944   -0.0676 H   0  0  0  0  0  0  0  0  0  0  0  0
    0.7211   -0.2228    0.8229 H   0  0  0  0  0  0  0  0  0  0  0  0
    0.7112   -0.2245   -0.9515 H   0  0  0  0  0  0  0  0  0  0  0  0
    9.3289   -1.7123    0.7761 H   0  0  0  0  0  0  0  0  0  0  0  0
   11.7266   -1.1674    0.7769 H   0  0  0  0  0  0  0  0  0  0  0  0
   12.5121    1.0265   -0.0734 H   0  0  0  0  0  0  0  0  0  0  0  0
   10.8776    2.6861   -0.9278 H   0  0  0  0  0  0  0  0  0  0  0  0
    8.4584    2.1637   -0.9365 H   0  0  0  0  0  0  0  0  0  0  0  0
    3.2967   -3.3999   -0.0668 H   0  0  0  0  0  0  0  0  0  0  0  0
    1.9806   -2.6501   -0.9699 H   0  0  0  0  0  0  0  0  0  0  0  0
    1.9735   -2.6333    0.8064 H   0  0  0  0  0  0  0  0  0  0  0  0
  1  2  1  0  0  0  0
  1 19  1  0  0  0  0
  1 20  1  0  0  0  0
  1 21  1  0  0  0  0
  2  3  1  0  0  0  0
  2 17  2  0  0  0  0
  3  4  1  0  0  0  0
  4  5  1  0  0  0  0
  4 16  2  0  0  0  0
  5  6  2  0  0  0  0
  6  7  1  0  0  0  0
  6 13  1  0  0  0  0
  7  8  1  0  0  0  0
  7 12  2  0  0  0  0
  8  9  2  0  0  0  0
  8 22  1  0  0  0  0
  9 10  1  0  0  0  0
  9 23  1  0  0  0  0
 10 11  2  0  0  0  0
 10 24  1  0  0  0  0
 11 12  1  0  0  0  0
 11 25  1  0  0  0  0
 12 26  1  0  0  0  0
 13 14  1  0  0  0  0
 14 15  2  0  0  0  0
 14 16  1  0  0  0  0
 16 17  1  0  0  0  0
 17 18  1  0  0  0  0
 18 27  1  0  0  0  0
 18 28  1  0  0  0  0
 18 29  1  0  0  0  0
M  END
>  <Energy>
21.7543

$$$$

 OpenBabel04232614443D

 21 23  0  0  0  0  0  0  0  0999 V2000
   -2.0194   -0.0600   -0.0963 Cl  0  0  0  0  0  0  0  0  0  0  0  0
   -0.3002   -0.0342   -0.0637 C   0  0  0  0  0  0  0  0  0  0  0  0
    0.3746    1.1839   -0.0520 C   0  0  0  0  0  0  0  0  0  0  0  0
    1.7718    1.2012   -0.0198 C   0  0  0  0  0  0  0  0  0  0  0  0
    2.5038    0.0052    0.0118 C   0  0  0  0  0  0  0  0  0  0  0  0
    3.9554    0.0604    0.0706 C   0  0  0  0  0  0  0  0  0  0  0  0
    4.7901   -0.9292    0.5756 C   0  0  0  0  0  0  0  0  0  0  0  0
    6.0393   -0.4074    0.4570 N   0  0  0  0  0  0  0  0  0  0  0  0
    7.2566   -0.8832    0.7964 N   0  0  0  0  0  0  0  0  0  0  0  0
    8.0888    0.0624    0.4649 C   0  0  0  0  0  0  0  0  0  0  0  0
    9.7594   -0.1081    0.7269 Cl  0  0  0  0  0  0  0  0  0  0  0  0
    7.4526    1.5472   -0.2663 S   0  0  0  0  0  0  0  0  0  0  0  0
    5.9139    0.8221   -0.0990 C   0  0  0  0  0  0  0  0  0  0  0  0
    4.6836    1.1686   -0.3468 N   0  0  0  0  0  0  0  0  0  0  0  0
    1.8095   -1.2135   -0.0110 C   0  0  0  0  0  0  0  0  0  0  0  0
    0.4111   -1.2320   -0.0493 C   0  0  0  0  0  0  0  0  0  0  0  0
   -0.1749    2.1211   -0.0661 H   0  0  0  0  0  0  0  0  0  0  0  0
    2.2904    2.1591   -0.0113 H   0  0  0  0  0  0  0  0  0  0  0  0
    4.6127   -1.9010    1.0107 H   0  0  0  0  0  0  0  0  0  0  0  0
    2.3421   -2.1606   -0.0106 H   0  0  0  0  0  0  0  0  0  0  0  0
   -0.1148   -2.1833   -0.0680 H   0  0  0  0  0  0  0  0  0  0  0  0
  1  2  1  0  0  0  0
  2  3  1  0  0  0  0
  2 16  2  0  0  0  0
  3  4  2  0  0  0  0
  3 17  1  0  0  0  0
  4  5  1  0  0  0  0
  4 18  1  0  0  0  0
  5  6  1  0  0  0  0
  5 15  2  0  0  0  0
  6  7  2  0  0  0  0
  6 14  1  0  0  0  0
  7  8  1  0  0  0  0
  7 19  1  0  0  0  0
  8  9  1  0  0  0  0
  8 13  1  0  0  0  0
  9 10  2  0  0  0  0
 10 11  1  0  0  0  0
 10 12  1  0  0  0  0
 12 13  1  0  0  0  0
 13 14  2  0  0  0  0
 15 16  1  0  0  0  0
 15 20  1  0  0  0  0
 16 21  1  0  0  0  0
M  END
>  <Energy>
10.7064

$$$$

 OpenBabel04232614443D

 28 30  0  0  0  0  0  0  0  0999 V2000
    1.3504    0.6945   -0.5394 C   0  0  0  0  0  0  0  0  0  0  0  0
    2.4399   -0.0408    0.0050 O   0  0  0  0  0  0  0  0  0  0  0  0
    3.0501   -0.9395   -0.8266 C   0  0  0  0  0  0  0  0  0  0  0  0
    2.6445   -1.2547   -2.1237 C   0  0  0  0  0  0  0  0  0  0  0  0
    3.3564   -2.1979   -2.8730 C   0  0  0  0  0  0  0  0  0  0  0  0
    4.5000   -2.8026   -2.3475 C   0  0  0  0  0  0  0  0  0  0  0  0
    5.2438   -3.7518   -3.0115 O   0  0  0  0  0  0  0  0  0  0  0  0
    5.3917   -3.6366   -4.3879 C   0  0  0  0  0  0  0  0  0  0  0  0
    5.3828   -2.4168   -4.9735 N   0  0  0  0  0  0  0  0  0  0  0  0
    5.5169   -2.3598   -6.3052 C   0  0  0  0  0  0  0  0  0  0  0  0
    5.6807   -3.3806   -7.1514 N   0  0  0  0  0  0  0  0  0  0  0  0
    5.7300   -4.5675   -6.5231 C   0  0  0  0  0  0  0  0  0  0  0  0
    5.9597   -6.0131   -7.3971 S   0  0  0  0  0  0  0  0  0  0  0  0
    5.9186   -6.9546   -5.9693 C   0  0  0  0  0  0  0  0  0  0  0  0
    5.7215   -6.1788   -4.8474 C   0  0  0  0  0  0  0  0  0  0  0  0
    5.6063   -4.7831   -5.1599 C   0  0  0  0  0  0  0  0  0  0  0  0
    4.8876   -2.5129   -1.0392 C   0  0  0  0  0  0  0  0  0  0  0  0
    4.1648   -1.5831   -0.2855 C   0  0  0  0  0  0  0  0  0  0  0  0
    0.9846    1.3754    0.2351 H   0  0  0  0  0  0  0  0  0  0  0  0
    0.5238    0.0306   -0.8140 H   0  0  0  0  0  0  0  0  0  0  0  0
    1.6708    1.3010   -1.3932 H   0  0  0  0  0  0  0  0  0  0  0  0
    1.7806   -0.7905   -2.5849 H   0  0  0  0  0  0  0  0  0  0  0  0
    3.0069   -2.4375   -3.8731 H   0  0  0  0  0  0  0  0  0  0  0  0
    5.4817   -1.3686   -6.7472 H   0  0  0  0  0  0  0  0  0  0  0  0
    6.0387   -8.0283   -6.0228 H   0  0  0  0  0  0  0  0  0  0  0  0
    5.6637   -6.5858   -3.8447 H   0  0  0  0  0  0  0  0  0  0  0  0
    5.7536   -3.0031   -0.6037 H   0  0  0  0  0  0  0  0  0  0  0  0
    4.4774   -1.3548    0.7310 H   0  0  0  0  0  0  0  0  0  0  0  0
  1  2  1  0  0  0  0
  1 19  1  0  0  0  0
  1 20  1  0  0  0  0
  1 21  1  0  0  0  0
  2  3  1  0  0  0  0
  3  4  1  0  0  0  0
  3 18  2  0  0  0  0
  4  5  2  0  0  0  0
  4 22  1  0  0  0  0
  5  6  1  0  0  0  0
  5 23  1  0  0  0  0
  6  7  1  0  0  0  0
  6 17  2  0  0  0  0
  7  8  1  0  0  0  0
  8  9  1  0  0  0  0
  8 16  2  0  0  0  0
  9 10  2  0  0  0  0
 10 11  1  0  0  0  0
 10 24  1  0  0  0  0
 11 12  2  0  0  0  0
 12 13  1  0  0  0  0
 12 16  1  0  0  0  0
 13 14  1  0  0  0  0
 14 15  2  0  0  0  0
 14 25  1  0  0  0  0
 15 16  1  0  0  0  0
 15 26  1  0  0  0  0
 17 18  1  0  0  0  0
 17 27  1  0  0  0  0
 18 28  1  0  0  0  0
M  END
>  <Energy>
23.1274

$$$$

 OpenBabel04232614443D

 36 37  0  0  0  0  0  0  0  0999 V2000
    1.0164   -0.4804   -0.4707 C   0  0  0  0  0  0  0  0  0  0  0  0
    2.3441    0.0828    0.0126 C   0  0  0  0  0  0  0  0  0  0  0  0
    2.7725    1.2659   -0.7861 C   0  0  0  0  0  0  0  0  0  0  0  0
    3.5229    1.1024   -1.8791 N   0  0  0  0  0  0  0  0  0  0  0  0
    3.7125    2.3482   -2.3218 N   0  0  0  0  0  0  0  0  0  0  0  0
    3.1145    3.3298   -1.5657 C   0  0  0  0  0  0  0  0  0  0  0  0
    3.2925    4.7496   -1.9990 C   0  0  0  0  0  0  0  0  0  0  0  0
    4.0260    5.6198   -0.9975 C   0  0  0  0  0  0  0  0  0  0  0  0
    2.4678    2.6332   -0.5540 C   0  0  0  0  0  0  0  0  0  0  0  0
    1.7453    3.0370    0.5185 O   0  0  0  0  0  0  0  0  0  0  0  0
    1.0431    4.2047    0.6213 C   0  0  0  0  0  0  0  0  0  0  0  0
    0.4518    4.8426   -0.4618 C   0  0  0  0  0  0  0  0  0  0  0  0
   -0.0964    6.1192   -0.3108 C   0  0  0  0  0  0  0  0  0  0  0  0
   -0.4576    6.9259   -1.5227 C   0  0  0  0  0  0  0  0  0  0  0  0
   -0.2095    6.6698    0.9720 C   0  0  0  0  0  0  0  0  0  0  0  0
    0.2622    5.9672    2.0825 C   0  0  0  0  0  0  0  0  0  0  0  0
    0.1355    6.5286    3.4012 C   0  0  0  0  0  0  0  0  0  0  0  0
    0.0377    6.9893    4.4599 N   0  0  0  0  0  0  0  0  0  0  0  0
    0.9049    4.7387    1.9051 C   0  0  0  0  0  0  0  0  0  0  0  0
    0.7383   -1.3585    0.1200 H   0  0  0  0  0  0  0  0  0  0  0  0
    1.0741   -0.7808   -1.5225 H   0  0  0  0  0  0  0  0  0  0  0  0
    0.2157    0.2612   -0.3779 H   0  0  0  0  0  0  0  0  0  0  0  0
    3.1115   -0.6983   -0.0424 H   0  0  0  0  0  0  0  0  0  0  0  0
    2.2579    0.3604    1.0697 H   0  0  0  0  0  0  0  0  0  0  0  0
    4.2710    2.4700   -3.1603 H   0  0  0  0  0  0  0  0  0  0  0  0
    2.3364    5.2037   -2.2693 H   0  0  0  0  0  0  0  0  0  0  0  0
    3.8736    4.7655   -2.9319 H   0  0  0  0  0  0  0  0  0  0  0  0
    3.4197    5.8163   -0.1097 H   0  0  0  0  0  0  0  0  0  0  0  0
    4.2638    6.5866   -1.4562 H   0  0  0  0  0  0  0  0  0  0  0  0
    4.9656    5.1588   -0.6780 H   0  0  0  0  0  0  0  0  0  0  0  0
    0.4717    4.3714   -1.4405 H   0  0  0  0  0  0  0  0  0  0  0  0
   -0.2542    6.3707   -2.4453 H   0  0  0  0  0  0  0  0  0  0  0  0
    0.1626    7.8291   -1.5481 H   0  0  0  0  0  0  0  0  0  0  0  0
   -1.5133    7.2055   -1.5119 H   0  0  0  0  0  0  0  0  0  0  0  0
   -0.6523    7.6574    1.0979 H   0  0  0  0  0  0  0  0  0  0  0  0
    1.3128    4.1999    2.7579 H   0  0  0  0  0  0  0  0  0  0  0  0
  1  2  1  0  0  0  0
  1 20  1  0  0  0  0
  1 21  1  0  0  0  0
  1 22  1  0  0  0  0
  2  3  1  0  0  0  0
  2 23  1  0  0  0  0
  2 24  1  0  0  0  0
  3  4  2  0  0  0  0
  3  9  1  0  0  0  0
  4  5  1  0  0  0  0
  5  6  1  0  0  0  0
  5 25  1  0  0  0  0
  6  7  1  0  0  0  0
  6  9  2  0  0  0  0
  7  8  1  0  0  0  0
  7 26  1  0  0  0  0
  7 27  1  0  0  0  0
  8 28  1  0  0  0  0
  8 29  1  0  0  0  0
  8 30  1  0  0  0  0
  9 10  1  0  0  0  0
 10 11  1  0  0  0  0
 11 12  1  0  0  0  0
 11 19  2  0  0  0  0
 12 13  2  0  0  0  0
 12 31  1  0  0  0  0
 13 14  1  0  0  0  0
 13 15  1  0  0  0  0
 14 32  1  0  0  0  0
 14 33  1  0  0  0  0
 14 34  1  0  0  0  0
 15 16  2  0  0  0  0
 15 35  1  0  0  0  0
 16 17  1  0  0  0  0
 16 19  1  0  0  0  0
 17 18  3  0  0  0  0
 19 36  1  0  0  0  0
M  END
>  <Energy>
46.2955

$$$$

 OpenBabel04232614443D

 40 43  0  0  1  0  0  0  0  0999 V2000
    3.1609    0.5833    1.3754 C   0  0  0  0  0  0  0  0  0  0  0  0
    2.5226   -0.0491    0.1638 C   0  0  0  0  0  0  0  0  0  0  0  0
    1.4436    0.3430   -0.2744 O   0  0  0  0  0  0  0  0  0  0  0  0
    3.2509   -1.0622   -0.4138 N   0  0  0  0  0  0  0  0  0  0  0  0
    4.3777   -1.5868    0.1405 N   0  0  0  0  0  0  0  0  0  0  0  0
    4.6629   -2.5902   -0.6267 C   0  0  0  0  0  0  0  0  0  0  0  0
    5.8064   -3.4983   -0.4619 C   0  0  0  0  0  0  0  0  0  0  0  0
    6.6020   -3.3627    0.6797 C   0  0  0  0  0  0  0  0  0  0  0  0
    7.7065   -4.1943    0.8705 C   0  0  0  0  0  0  0  0  0  0  0  0
    8.0348   -5.1696   -0.0809 C   0  0  0  0  0  0  0  0  0  0  0  0
    9.1455   -6.0081    0.0966 C   0  0  0  0  0  0  0  0  0  0  0  0
    9.4692   -6.9717   -0.8587 C   0  0  0  0  0  0  0  0  0  0  0  0
    8.6867   -7.1081   -2.0015 C   0  0  0  0  0  0  0  0  0  0  0  0
    7.5761   -6.2834   -2.1914 C   0  0  0  0  0  0  0  0  0  0  0  0
    7.2344   -5.3086   -1.2404 C   0  0  0  0  0  0  0  0  0  0  0  0
    6.1203   -4.4691   -1.4186 C   0  0  0  0  0  0  0  0  0  0  0  0
    3.8384   -2.8372   -1.6788 O   0  0  0  0  0  0  0  0  0  0  0  0
    2.8474   -1.8037   -1.5902 C   0  0  3  0  0  0  0  0  0  0  0  0
    2.8693   -0.9884   -2.8584 C   0  0  0  0  0  0  0  0  0  0  0  0
    3.9888   -0.2262   -3.2348 C   0  0  0  0  0  0  0  0  0  0  0  0
    3.9768    0.5223   -4.4144 C   0  0  0  0  0  0  0  0  0  0  0  0
    2.8491    0.5186   -5.2342 C   0  0  0  0  0  0  0  0  0  0  0  0
    1.7331   -0.2334   -4.8734 C   0  0  0  0  0  0  0  0  0  0  0  0
    1.7520   -0.9782   -3.6962 C   0  0  0  0  0  0  0  0  0  0  0  0
    0.6689   -1.7014   -3.3781 F   0  0  0  0  0  0  0  0  0  0  0  0
    2.4621    1.2910    1.8304 H   0  0  0  0  0  0  0  0  0  0  0  0
    4.0630    1.1227    1.0733 H   0  0  0  0  0  0  0  0  0  0  0  0
    3.4110   -0.1762    2.1213 H   0  0  0  0  0  0  0  0  0  0  0  0
    6.3709   -2.6096    1.4310 H   0  0  0  0  0  0  0  0  0  0  0  0
    8.3098   -4.0703    1.7670 H   0  0  0  0  0  0  0  0  0  0  0  0
    9.7704   -5.9156    0.9824 H   0  0  0  0  0  0  0  0  0  0  0  0
   10.3333   -7.6143   -0.7099 H   0  0  0  0  0  0  0  0  0  0  0  0
    8.9405   -7.8571   -2.7473 H   0  0  0  0  0  0  0  0  0  0  0  0
    6.9790   -6.4079   -3.0924 H   0  0  0  0  0  0  0  0  0  0  0  0
    5.5054   -4.5728   -2.3096 H   0  0  0  0  0  0  0  0  0  0  0  0
    1.8689   -2.2608   -1.4038 H   0  0  0  0  0  0  0  0  0  0  0  0
    4.8755   -0.2057   -2.6038 H   0  0  0  0  0  0  0  0  0  0  0  0
    4.8478    1.1122   -4.6905 H   0  0  0  0  0  0  0  0  0  0  0  0
    2.8399    1.1031   -6.1507 H   0  0  0  0  0  0  0  0  0  0  0  0
    0.8464   -0.2429   -5.4996 H   0  0  0  0  0  0  0  0  0  0  0  0
  1  2  1  0  0  0  0
  1 26  1  0  0  0  0
  1 27  1  0  0  0  0
  1 28  1  0  0  0  0
  2  3  2  0  0  0  0
  2  4  1  0  0  0  0
  4  5  1  0  0  0  0
  4 18  1  0  0  0  0
  5  6  2  0  0  0  0
  6  7  1  0  0  0  0
  6 17  1  0  0  0  0
  7  8  1  0  0  0  0
  7 16  2  0  0  0  0
  8  9  2  0  0  0  0
  8 29  1  0  0  0  0
  9 10  1  0  0  0  0
  9 30  1  0  0  0  0
 10 11  1  0  0  0  0
 10 15  2  0  0  0  0
 11 12  2  0  0  0  0
 11 31  1  0  0  0  0
 12 13  1  0  0  0  0
 12 32  1  0  0  0  0
 13 14  2  0  0  0  0
 13 33  1  0  0  0  0
 14 15  1  0  0  0  0
 14 34  1  0  0  0  0
 15 16  1  0  0  0  0
 16 35  1  0  0  0  0
 17 18  1  0  0  0  0
 18 19  1  0  0  0  0
 18 36  1  0  0  0  0
 19 20  1  0  0  0  0
 19 24  2  0  0  0  0
 20 21  2  0  0  0  0
 20 37  1  0  0  0  0
 21 22  1  0  0  0  0
 21 38  1  0  0  0  0
 22 23  2  0  0  0  0
 22 39  1  0  0  0  0
 23 24  1  0  0  0  0
 23 40  1  0  0  0  0
 24 25  1  0  0  0  0
M  END
>  <Energy>
67.8047

$$$$

 OpenBabel04232614443D

 33 34  0  0  0  0  0  0  0  0999 V2000
    1.0428   -0.2844    0.0217 C   0  0  0  0  0  0  0  0  0  0  0  0
    2.5444   -0.1307    0.0303 C   0  0  0  0  0  0  0  0  0  0  0  0
    3.2030    1.0533    0.0865 C   0  0  0  0  0  0  0  0  0  0  0  0
    2.5519    2.4129    0.1503 C   0  0  0  0  0  0  0  0  0  0  0  0
    4.7174    1.1490    0.0805 C   0  0  0  0  0  0  0  0  0  0  0  0
    5.5751   -0.3543   -0.5062 S   0  3  3  0  0  0  0  0  0  0  0  0
    5.3065   -0.4590   -2.0511 O   0  5  0  0  0  0  0  0  0  0  0  0
    4.6737   -1.4077    0.2542 N   0  0  0  0  0  0  0  0  0  0  0  0
    5.2589   -1.9698    1.7174 S   0  0  0  0  0  0  0  0  0  0  0  0
    6.6780   -1.7128    1.8407 O   0  0  0  0  0  0  0  0  0  0  0  0
    4.3379   -1.5631    2.7608 O   0  0  0  0  0  0  0  0  0  0  0  0
    5.0924   -3.7346    1.5009 C   0  0  0  0  0  0  0  0  0  0  0  0
    5.7475   -4.3464    0.4243 C   0  0  0  0  0  0  0  0  0  0  0  0
    5.6170   -5.7227    0.2300 C   0  0  0  0  0  0  0  0  0  0  0  0
    4.8412   -6.4763    1.1112 C   0  0  0  0  0  0  0  0  0  0  0  0
    4.6854   -8.1732    0.8716 Cl  0  0  0  0  0  0  0  0  0  0  0  0
    4.1908   -5.8659    2.1862 C   0  0  0  0  0  0  0  0  0  0  0  0
    4.3134   -4.4878    2.3849 C   0  0  0  0  0  0  0  0  0  0  0  0
    3.2452   -1.4803   -0.0448 C   0  0  0  0  0  0  0  0  0  0  0  0
    0.4923    0.6552   -0.0269 H   0  0  0  0  0  0  0  0  0  0  0  0
    0.7182   -0.8071    0.9281 H   0  0  0  0  0  0  0  0  0  0  0  0
    0.7327   -0.8768   -0.8459 H   0  0  0  0  0  0  0  0  0  0  0  0
    1.4649    2.3904    0.2269 H   0  0  0  0  0  0  0  0  0  0  0  0
    2.8024    2.9882   -0.7476 H   0  0  0  0  0  0  0  0  0  0  0  0
    2.9197    2.9632    1.0233 H   0  0  0  0  0  0  0  0  0  0  0  0
    5.0816    1.3762    1.0877 H   0  0  0  0  0  0  0  0  0  0  0  0
    5.0445    1.9524   -0.5891 H   0  0  0  0  0  0  0  0  0  0  0  0
    6.3574   -3.7614   -0.2618 H   0  0  0  0  0  0  0  0  0  0  0  0
    6.1232   -6.2005   -0.6053 H   0  0  0  0  0  0  0  0  0  0  0  0
    3.5917   -6.4599    2.8717 H   0  0  0  0  0  0  0  0  0  0  0  0
    3.8079   -4.0187    3.2268 H   0  0  0  0  0  0  0  0  0  0  0  0
    2.7570   -2.1725    0.6518 H   0  0  0  0  0  0  0  0  0  0  0  0
    3.1058   -1.9116   -1.0440 H   0  0  0  0  0  0  0  0  0  0  0  0
  1  2  1  0  0  0  0
  1 20  1  0  0  0  0
  1 21  1  0  0  0  0
  1 22  1  0  0  0  0
  2  3  2  0  0  0  0
  2 19  1  0  0  0  0
  3  4  1  0  0  0  0
  3  5  1  0  0  0  0
  4 23  1  0  0  0  0
  4 24  1  0  0  0  0
  4 25  1  0  0  0  0
  5  6  1  0  0  0  0
  5 26  1  0  0  0  0
  5 27  1  0  0  0  0
  6  7  1  0  0  0  0
  6  8  1  0  0  0  0
  8  9  1  0  0  0  0
  8 19  1  0  0  0  0
  9 10  2  0  0  0  0
  9 11  2  0  0  0  0
  9 12  1  0  0  0  0
 12 13  1  0  0  0  0
 12 18  2  0  0  0  0
 13 14  2  0  0  0  0
 13 28  1  0  0  0  0
 14 15  1  0  0  0  0
 14 29  1  0  0  0  0
 15 16  1  0  0  0  0
 15 17  2  0  0  0  0
 17 18  1  0  0  0  0
 17 30  1  0  0  0  0
 18 31  1  0  0  0  0
 19 32  1  0  0  0  0
 19 33  1  0  0  0  0
M  CHG  2   6   1   7  -1
M  END
>  <Energy>
-10.0969

$$$$

 OpenBabel04232614443D

 31 33  0  0  0  0  0  0  0  0999 V2000
    1.1491    0.1373    0.2702 N   0  0  0  0  0  0  0  0  0  0  0  0
    2.5236    0.1471    0.1621 C   0  0  0  0  0  0  0  0  0  0  0  0
    3.1264    1.3290    0.0736 N   0  0  0  0  0  0  0  0  0  0  0  0
    4.4659    1.3220    0.0113 C   0  0  0  0  0  0  0  0  0  0  0  0
    5.0322    2.5883   -0.1533 N   0  0  0  0  0  0  0  0  0  0  0  0
    5.2400    0.1478    0.0288 C   0  0  0  0  0  0  0  0  0  0  0  0
    6.6659    0.0470    0.0255 C   0  0  0  0  0  0  0  0  0  0  0  0
    7.3917    1.2235    0.0840 O   0  0  0  0  0  0  0  0  0  0  0  0
    8.6255    1.3057   -0.5174 C   0  0  0  0  0  0  0  0  0  0  0  0
    8.9451    0.6968   -1.7327 C   0  0  0  0  0  0  0  0  0  0  0  0
   10.2361    0.8153   -2.2528 C   0  0  0  0  0  0  0  0  0  0  0  0
   11.1950    1.5851   -1.5877 C   0  0  0  0  0  0  0  0  0  0  0  0
   12.7758    1.6720   -2.2777 Cl  0  0  0  0  0  0  0  0  0  0  0  0
   10.8533    2.2503   -0.4048 C   0  0  0  0  0  0  0  0  0  0  0  0
   11.9694    3.2575    0.4470 Cl  0  0  0  0  0  0  0  0  0  0  0  0
    9.5681    2.1094    0.1273 C   0  0  0  0  0  0  0  0  0  0  0  0
    7.2869   -1.2059    0.0875 C   0  0  0  0  0  0  0  0  0  0  0  0
    6.5143   -2.3583    0.0677 C   0  0  0  0  0  0  0  0  0  0  0  0
    5.1245   -2.2539    0.0572 C   0  0  0  0  0  0  0  0  0  0  0  0
    4.4785   -1.0247    0.0670 C   0  0  0  0  0  0  0  0  0  0  0  0
    3.1425   -1.0303    0.1250 N   0  0  0  0  0  0  0  0  0  0  0  0
    0.7676    0.9863   -0.1221 H   0  0  0  0  0  0  0  0  0  0  0  0
    0.7848   -0.7404   -0.0724 H   0  0  0  0  0  0  0  0  0  0  0  0
    4.2965    3.2794   -0.0455 H   0  0  0  0  0  0  0  0  0  0  0  0
    5.8179    2.7380    0.4698 H   0  0  0  0  0  0  0  0  0  0  0  0
    8.2049    0.1173   -2.2792 H   0  0  0  0  0  0  0  0  0  0  0  0
   10.4868    0.3057   -3.1805 H   0  0  0  0  0  0  0  0  0  0  0  0
    9.2984    2.6212    1.0480 H   0  0  0  0  0  0  0  0  0  0  0  0
    8.3674   -1.2996    0.1544 H   0  0  0  0  0  0  0  0  0  0  0  0
    6.9868   -3.3373    0.0820 H   0  0  0  0  0  0  0  0  0  0  0  0
    4.5251   -3.1627    0.0630 H   0  0  0  0  0  0  0  0  0  0  0  0
  1  2  1  0  0  0  0
  1 22  1  0  0  0  0
  1 23  1  0  0  0  0
  2  3  1  0  0  0  0
  2 21  2  0  0  0  0
  3  4  2  0  0  0  0
  4  5  1  0  0  0  0
  4  6  1  0  0  0  0
  5 24  1  0  0  0  0
  5 25  1  0  0  0  0
  6  7  1  0  0  0  0
  6 20  2  0  0  0  0
  7  8  1  0  0  0  0
  7 17  2  0  0  0  0
  8  9  1  0  0  0  0
  9 10  1  0  0  0  0
  9 16  2  0  0  0  0
 10 11  2  0  0  0  0
 10 26  1  0  0  0  0
 11 12  1  0  0  0  0
 11 27  1  0  0  0  0
 12 13  1  0  0  0  0
 12 14  2  0  0  0  0
 14 15  1  0  0  0  0
 14 16  1  0  0  0  0
 16 28  1  0  0  0  0
 17 18  1  0  0  0  0
 17 29  1  0  0  0  0
 18 19  2  0  0  0  0
 18 30  1  0  0  0  0
 19 20  1  0  0  0  0
 19 31  1  0  0  0  0
 20 21  1  0  0  0  0
M  END
>  <Energy>
-77.8398

$$$$

 OpenBabel04232614443D

 31 33  0  0  0  0  0  0  0  0999 V2000
    1.0339    0.0137   -0.2254 N   0  0  0  0  0  0  0  0  0  0  0  0
    2.4115    0.0210   -0.1481 C   0  0  0  0  0  0  0  0  0  0  0  0
    3.0136    1.2064   -0.0606 N   0  0  0  0  0  0  0  0  0  0  0  0
    4.3506    1.2001   -0.0227 C   0  0  0  0  0  0  0  0  0  0  0  0
    4.9475    2.4657    0.0640 N   0  0  0  0  0  0  0  0  0  0  0  0
    5.1149    0.0301   -0.0487 C   0  0  0  0  0  0  0  0  0  0  0  0
    6.5329   -0.0197   -0.0367 C   0  0  0  0  0  0  0  0  0  0  0  0
    7.2049   -1.2393   -0.1135 C   0  0  0  0  0  0  0  0  0  0  0  0
    8.9766   -1.2821   -0.2805 S   0  0  0  0  0  0  0  0  0  0  0  0
    9.5227   -1.2647    1.4150 C   0  0  0  0  0  0  0  0  0  0  0  0
    9.2451   -2.3352    2.2711 C   0  0  0  0  0  0  0  0  0  0  0  0
    9.7480   -2.3365    3.5722 C   0  0  0  0  0  0  0  0  0  0  0  0
    9.4084   -3.6648    4.6122 Cl  0  0  0  0  0  0  0  0  0  0  0  0
   10.5340   -1.2841    4.0323 C   0  0  0  0  0  0  0  0  0  0  0  0
   10.8141   -0.2232    3.1759 C   0  0  0  0  0  0  0  0  0  0  0  0
   11.8014    1.0751    3.7255 Cl  0  0  0  0  0  0  0  0  0  0  0  0
   10.3160   -0.2080    1.8722 C   0  0  0  0  0  0  0  0  0  0  0  0
    6.4573   -2.4134   -0.1673 C   0  0  0  0  0  0  0  0  0  0  0  0
    5.0577   -2.3577   -0.1501 C   0  0  0  0  0  0  0  0  0  0  0  0
    4.3702   -1.1510   -0.1095 C   0  0  0  0  0  0  0  0  0  0  0  0
    3.0334   -1.1587   -0.1480 N   0  0  0  0  0  0  0  0  0  0  0  0
    0.6605    0.8662    0.1665 H   0  0  0  0  0  0  0  0  0  0  0  0
    0.6713   -0.8609    0.1265 H   0  0  0  0  0  0  0  0  0  0  0  0
    4.1933    3.1478    0.0195 H   0  0  0  0  0  0  0  0  0  0  0  0
    5.6166    2.6099   -0.6836 H   0  0  0  0  0  0  0  0  0  0  0  0
    7.1013    0.9059    0.0083 H   0  0  0  0  0  0  0  0  0  0  0  0
    8.6536   -3.1787    1.9250 H   0  0  0  0  0  0  0  0  0  0  0  0
   10.9311   -1.2953    5.0434 H   0  0  0  0  0  0  0  0  0  0  0  0
   10.5600    0.6216    1.2122 H   0  0  0  0  0  0  0  0  0  0  0  0
    6.9462   -3.3818   -0.2436 H   0  0  0  0  0  0  0  0  0  0  0  0
    4.4882   -3.2841   -0.1977 H   0  0  0  0  0  0  0  0  0  0  0  0
  1  2  1  0  0  0  0
  1 22  1  0  0  0  0
  1 23  1  0  0  0  0
  2  3  1  0  0  0  0
  2 21  2  0  0  0  0
  3  4  2  0  0  0  0
  4  5  1  0  0  0  0
  4  6  1  0  0  0  0
  5 24  1  0  0  0  0
  5 25  1  0  0  0  0
  6  7  1  0  0  0  0
  6 20  2  0  0  0  0
  7  8  2  0  0  0  0
  7 26  1  0  0  0  0
  8  9  1  0  0  0  0
  8 18  1  0  0  0  0
  9 10  1  0  0  0  0
 10 11  1  0  0  0  0
 10 17  2  0  0  0  0
 11 12  2  0  0  0  0
 11 27  1  0  0  0  0
 12 13  1  0  0  0  0
 12 14  1  0  0  0  0
 14 15  2  0  0  0  0
 14 28  1  0  0  0  0
 15 16  1  0  0  0  0
 15 17  1  0  0  0  0
 17 29  1  0  0  0  0
 18 19  2  0  0  0  0
 18 30  1  0  0  0  0
 19 20  1  0  0  0  0
 19 31  1  0  0  0  0
 20 21  1  0  0  0  0
M  END
>  <Energy>
-117.956

$$$$

 OpenBabel04232614443D

 40 42  0  0  0  0  0  0  0  0999 V2000
    5.6085   -1.0690   -1.5361 C   0  0  0  0  0  0  0  0  0  0  0  0
    4.5988   -0.4092   -0.5768 C   0  0  0  0  0  0  0  0  0  0  0  0
    4.0711    0.8761   -1.2250 C   0  0  0  0  0  0  0  0  0  0  0  0
    3.4407   -1.3965   -0.3534 C   0  0  0  0  0  0  0  0  0  0  0  0
    5.3246   -0.0493    0.7440 C   0  0  0  0  0  0  0  0  0  0  0  0
    6.5441   -0.1374    0.8481 O   0  0  0  0  0  0  0  0  0  0  0  0
    4.5022    0.3750    1.7791 N   0  0  0  0  0  0  0  0  0  0  0  0
    5.0391    0.6438    3.0680 C   0  0  0  0  0  0  0  0  0  0  0  0
    6.1012    1.5663    3.1910 C   0  0  0  0  0  0  0  0  0  0  0  0
    6.5685    1.7575    4.5053 C   0  0  0  0  0  0  0  0  0  0  0  0
    7.5288    2.5751    4.9596 N   0  0  0  0  0  0  0  0  0  0  0  0
    7.5860    2.2829    6.2828 N   0  0  0  0  0  0  0  0  0  0  0  0
    8.5513    2.8730    7.1433 C   0  0  0  0  0  0  0  0  0  0  0  0
    9.3961    3.8877    6.6733 C   0  0  0  0  0  0  0  0  0  0  0  0
   10.3586    4.4420    7.5219 C   0  0  0  0  0  0  0  0  0  0  0  0
   10.4882    3.9787    8.8329 C   0  0  0  0  0  0  0  0  0  0  0  0
    9.6481    2.9726    9.3043 C   0  0  0  0  0  0  0  0  0  0  0  0
    8.6734    2.4233    8.4689 C   0  0  0  0  0  0  0  0  0  0  0  0
    6.6837    1.3829    6.7445 N   0  0  0  0  0  0  0  0  0  0  0  0
    6.0106    1.0304    5.6420 C   0  0  0  0  0  0  0  0  0  0  0  0
    4.9471    0.1228    5.5154 C   0  0  0  0  0  0  0  0  0  0  0  0
    4.4737   -0.0300    4.1989 C   0  0  0  0  0  0  0  0  0  0  0  0
    3.1875   -1.1745    3.9588 Cl  0  0  0  0  0  0  0  0  0  0  0  0
    5.1415   -1.3264   -2.4935 H   0  0  0  0  0  0  0  0  0  0  0  0
    6.0178   -1.9902   -1.1050 H   0  0  0  0  0  0  0  0  0  0  0  0
    6.4529   -0.4030   -1.7470 H   0  0  0  0  0  0  0  0  0  0  0  0
    3.6099    0.6684   -2.1959 H   0  0  0  0  0  0  0  0  0  0  0  0
    4.8828    1.5938   -1.3860 H   0  0  0  0  0  0  0  0  0  0  0  0
    3.3194    1.3685   -0.5959 H   0  0  0  0  0  0  0  0  0  0  0  0
    3.0100   -1.7195   -1.3082 H   0  0  0  0  0  0  0  0  0  0  0  0
    2.6241   -0.9538    0.2263 H   0  0  0  0  0  0  0  0  0  0  0  0
    3.7808   -2.2898    0.1824 H   0  0  0  0  0  0  0  0  0  0  0  0
    3.5686   -0.0191    1.7831 H   0  0  0  0  0  0  0  0  0  0  0  0
    6.5266    2.0999    2.3505 H   0  0  0  0  0  0  0  0  0  0  0  0
    9.3144    4.2603    5.6556 H   0  0  0  0  0  0  0  0  0  0  0  0
   11.0115    5.2308    7.1589 H   0  0  0  0  0  0  0  0  0  0  0  0
   11.2476    4.4034    9.4851 H   0  0  0  0  0  0  0  0  0  0  0  0
    9.7543    2.6081   10.3240 H   0  0  0  0  0  0  0  0  0  0  0  0
    8.0331    1.6350    8.8557 H   0  0  0  0  0  0  0  0  0  0  0  0
    4.5470   -0.4187    6.3618 H   0  0  0  0  0  0  0  0  0  0  0  0
  1  2  1  0  0  0  0
  1 24  1  0  0  0  0
  1 25  1  0  0  0  0
  1 26  1  0  0  0  0
  2  3  1  0  0  0  0
  2  4  1  0  0  0  0
  2  5  1  0  0  0  0
  3 27  1  0  0  0  0
  3 28  1  0  0  0  0
  3 29  1  0  0  0  0
  4 30  1  0  0  0  0
  4 31  1  0  0  0  0
  4 32  1  0  0  0  0
  5  6  2  0  0  0  0
  5  7  1  0  0  0  0
  7  8  1  0  0  0  0
  7 33  1  0  0  0  0
  8  9  2  0  0  0  0
  8 22  1  0  0  0  0
  9 10  1  0  0  0  0
  9 34  1  0  0  0  0
 10 11  2  0  0  0  0
 10 20  1  0  0  0  0
 11 12  1  0  0  0  0
 12 13  1  0  0  0  0
 12 19  1  0  0  0  0
 13 14  1  0  0  0  0
 13 18  2  0  0  0  0
 14 15  2  0  0  0  0
 14 35  1  0  0  0  0
 15 16  1  0  0  0  0
 15 36  1  0  0  0  0
 16 17  2  0  0  0  0
 16 37  1  0  0  0  0
 17 18  1  0  0  0  0
 17 38  1  0  0  0  0
 18 39  1  0  0  0  0
 19 20  2  0  0  0  0
 20 21  1  0  0  0  0
 21 22  2  0  0  0  0
 21 40  1  0  0  0  0
 22 23  1  0  0  0  0
M  END
>  <Energy>
60.1387

$$$$

 OpenBabel04232614443D

 38 42  0  0  0  0  0  0  0  0999 V2000
    4.2742   -0.7855   -1.9103 C   0  0  0  0  0  0  0  0  0  0  0  0
    4.3046    0.5864   -1.8322 C   0  0  0  0  0  0  0  0  0  0  0  0
    3.3481    1.3186   -1.2247 N   0  0  0  0  0  0  0  0  0  0  0  0
    2.2815    0.7033   -0.6622 C   0  0  0  0  0  0  0  0  0  0  0  0
    2.1988   -0.7094   -0.6647 C   0  0  0  0  0  0  0  0  0  0  0  0
    3.2104   -1.4425   -1.3061 C   0  0  0  0  0  0  0  0  0  0  0  0
    1.1290   -1.3732   -0.0413 C   0  0  0  0  0  0  0  0  0  0  0  0
    0.1232   -0.6526    0.5895 C   0  0  0  0  0  0  0  0  0  0  0  0
    0.1676    0.7378    0.5785 C   0  0  0  0  0  0  0  0  0  0  0  0
    1.2240    1.4140   -0.0617 C   0  0  0  0  0  0  0  0  0  0  0  0
    1.1628    2.9165   -0.0622 C   0  0  0  0  0  0  0  0  0  0  0  0
    1.7206    3.6294   -1.2542 C   0  0  0  0  0  0  0  0  0  0  0  0
    1.7340    4.9662   -1.2445 C   0  0  0  0  0  0  0  0  0  0  0  0
    1.1596    5.6558   -0.1607 C   0  0  0  0  0  0  0  0  0  0  0  0
    1.0138    6.9447    0.0461 N   0  0  0  0  0  0  0  0  0  0  0  0
    0.3184    7.0300    1.2204 C   0  0  0  0  0  0  0  0  0  0  0  0
    0.0346    5.7827    1.7574 C   0  0  0  0  0  0  0  0  0  0  0  0
   -0.7212    5.4281    2.9624 C   0  0  0  0  0  0  0  0  0  0  0  0
   -1.7828    6.2352    3.3847 C   0  0  0  0  0  0  0  0  0  0  0  0
   -2.4858    5.8765    4.5236 C   0  0  0  0  0  0  0  0  0  0  0  0
   -2.2077    4.7849    5.2654 N   0  0  0  0  0  0  0  0  0  0  0  0
   -1.1746    4.0238    4.8487 C   0  0  0  0  0  0  0  0  0  0  0  0
   -0.4110    4.3027    3.7266 C   0  0  0  0  0  0  0  0  0  0  0  0
    0.6029    4.8949    0.8547 N   0  0  0  0  0  0  0  0  0  0  0  0
    0.5911    3.5241    0.9410 N   0  0  0  0  0  0  0  0  0  0  0  0
    5.0588   -1.3325   -2.4191 H   0  0  0  0  0  0  0  0  0  0  0  0
    5.1147    1.1598   -2.2746 H   0  0  0  0  0  0  0  0  0  0  0  0
    3.1721   -2.5268   -1.3417 H   0  0  0  0  0  0  0  0  0  0  0  0
    1.0788   -2.4612   -0.0401 H   0  0  0  0  0  0  0  0  0  0  0  0
   -0.6980   -1.1709    1.0809 H   0  0  0  0  0  0  0  0  0  0  0  0
   -0.6319    1.2962    1.0619 H   0  0  0  0  0  0  0  0  0  0  0  0
    2.1011    3.0821   -2.1036 H   0  0  0  0  0  0  0  0  0  0  0  0
    2.1474    5.5348   -2.0695 H   0  0  0  0  0  0  0  0  0  0  0  0
    0.0463    7.9960    1.6268 H   0  0  0  0  0  0  0  0  0  0  0  0
   -2.0773    7.1241    2.8364 H   0  0  0  0  0  0  0  0  0  0  0  0
   -3.3193    6.4765    4.8774 H   0  0  0  0  0  0  0  0  0  0  0  0
   -0.9650    3.1513    5.4604 H   0  0  0  0  0  0  0  0  0  0  0  0
    0.4118    3.6453    3.4680 H   0  0  0  0  0  0  0  0  0  0  0  0
  1  2  1  0  0  0  0
  1  6  2  0  0  0  0
  1 26  1  0  0  0  0
  2  3  2  0  0  0  0
  2 27  1  0  0  0  0
  3  4  1  0  0  0  0
  4  5  1  0  0  0  0
  4 10  2  0  0  0  0
  5  6  1  0  0  0  0
  5  7  2  0  0  0  0
  6 28  1  0  0  0  0
  7  8  1  0  0  0  0
  7 29  1  0  0  0  0
  8  9  2  0  0  0  0
  8 30  1  0  0  0  0
  9 10  1  0  0  0  0
  9 31  1  0  0  0  0
 10 11  1  0  0  0  0
 11 12  1  0  0  0  0
 11 25  2  0  0  0  0
 12 13  2  0  0  0  0
 12 32  1  0  0  0  0
 13 14  1  0  0  0  0
 13 33  1  0  0  0  0
 14 15  2  0  0  0  0
 14 24  1  0  0  0  0
 15 16  1  0  0  0  0
 16 17  2  0  0  0  0
 16 34  1  0  0  0  0
 17 18  1  0  0  0  0
 17 24  1  0  0  0  0
 18 19  1  0  0  0  0
 18 23  2  0  0  0  0
 19 20  2  0  0  0  0
 19 35  1  0  0  0  0
 20 21  1  0  0  0  0
 20 36  1  0  0  0  0
 21 22  2  0  0  0  0
 22 23  1  0  0  0  0
 22 37  1  0  0  0  0
 23 38  1  0  0  0  0
 24 25  1  0  0  0  0
M  END
>  <Energy>
90.882

$$$$

 OpenBabel04232614443D

 39 43  0  0  0  0  0  0  0  0999 V2000
    3.5383   -0.0237   -1.0729 C   0  0  0  0  0  0  0  0  0  0  0  0
    2.7708   -0.1071    0.1234 O   0  0  0  0  0  0  0  0  0  0  0  0
    3.4454    0.1023    1.2974 C   0  0  0  0  0  0  0  0  0  0  0  0
    4.5275    1.0011    1.3679 C   0  0  0  0  0  0  0  0  0  0  0  0
    5.1717    1.1788    2.5790 C   0  0  0  0  0  0  0  0  0  0  0  0
    4.7410    0.5067    3.7349 C   0  0  0  0  0  0  0  0  0  0  0  0
    3.6606   -0.3545    3.6877 C   0  0  0  0  0  0  0  0  0  0  0  0
    3.0016   -0.5681    2.4674 C   0  0  0  0  0  0  0  0  0  0  0  0
    1.9675   -1.4595    2.5996 O   0  0  0  0  0  0  0  0  0  0  0  0
    1.2337   -1.8467    1.4510 C   0  0  0  0  0  0  0  0  0  0  0  0
    5.5857    0.8898    4.8380 C   0  0  0  0  0  0  0  0  0  0  0  0
    5.4421    0.4516    6.0952 N   0  0  0  0  0  0  0  0  0  0  0  0
    6.3438    0.9554    6.9705 C   0  0  0  0  0  0  0  0  0  0  0  0
    7.3735    1.8572    6.6484 C   0  0  0  0  0  0  0  0  0  0  0  0
    8.2633    2.3395    7.6237 C   0  0  0  0  0  0  0  0  0  0  0  0
    9.2428    3.2238    7.2297 C   0  0  0  0  0  0  0  0  0  0  0  0
    9.3750    3.6270    5.9226 C   0  0  0  0  0  0  0  0  0  0  0  0
    8.5265    3.1780    4.9315 C   0  0  0  0  0  0  0  0  0  0  0  0
    7.4980    2.2855    5.2927 C   0  0  0  0  0  0  0  0  0  0  0  0
    6.5644    1.7862    4.3889 C   0  0  0  0  0  0  0  0  0  0  0  0
    6.3708    2.0514    2.9103 C   0  0  0  0  0  0  0  0  0  0  0  0
   10.4051    4.4982    5.7520 O   0  0  0  0  0  0  0  0  0  0  0  0
   10.8632    4.6476    7.1132 C   0  0  0  0  0  0  0  0  0  0  0  0
   10.1673    3.7958    8.0463 O   0  0  0  0  0  0  0  0  0  0  0  0
    3.0491   -0.6491   -1.8254 H   0  0  0  0  0  0  0  0  0  0  0  0
    4.5587   -0.4019   -0.9445 H   0  0  0  0  0  0  0  0  0  0  0  0
    3.5468    1.0066   -1.4409 H   0  0  0  0  0  0  0  0  0  0  0  0
    4.8585    1.5629    0.5006 H   0  0  0  0  0  0  0  0  0  0  0  0
    3.3309   -0.8681    4.5889 H   0  0  0  0  0  0  0  0  0  0  0  0
    0.5061   -2.6031    1.7646 H   0  0  0  0  0  0  0  0  0  0  0  0
    1.8787   -2.3161    0.7014 H   0  0  0  0  0  0  0  0  0  0  0  0
    0.6669   -1.0044    1.0407 H   0  0  0  0  0  0  0  0  0  0  0  0
    6.2133    0.6018    7.9907 H   0  0  0  0  0  0  0  0  0  0  0  0
    8.1877    2.0389    8.6640 H   0  0  0  0  0  0  0  0  0  0  0  0
    8.6617    3.5168    3.9102 H   0  0  0  0  0  0  0  0  0  0  0  0
    7.2474    1.7305    2.3395 H   0  0  0  0  0  0  0  0  0  0  0  0
    6.1375    3.1052    2.7322 H   0  0  0  0  0  0  0  0  0  0  0  0
   11.9331    4.4158    7.1545 H   0  0  0  0  0  0  0  0  0  0  0  0
   10.7169    5.6915    7.4168 H   0  0  0  0  0  0  0  0  0  0  0  0
  1  2  1  0  0  0  0
  1 25  1  0  0  0  0
  1 26  1  0  0  0  0
  1 27  1  0  0  0  0
  2  3  1  0  0  0  0
  3  4  1  0  0  0  0
  3  8  2  0  0  0  0
  4  5  2  0  0  0  0
  4 28  1  0  0  0  0
  5  6  1  0  0  0  0
  5 21  1  0  0  0  0
  6  7  2  0  0  0  0
  6 11  1  0  0  0  0
  7  8  1  0  0  0  0
  7 29  1  0  0  0  0
  8  9  1  0  0  0  0
  9 10  1  0  0  0  0
 10 30  1  0  0  0  0
 10 31  1  0  0  0  0
 10 32  1  0  0  0  0
 11 12  1  0  0  0  0
 11 20  2  0  0  0  0
 12 13  2  0  0  0  0
 13 14  1  0  0  0  0
 13 33  1  0  0  0  0
 14 15  1  0  0  0  0
 14 19  2  0  0  0  0
 15 16  2  0  0  0  0
 15 34  1  0  0  0  0
 16 17  1  0  0  0  0
 16 24  1  0  0  0  0
 17 18  2  0  0  0  0
 17 22  1  0  0  0  0
 18 19  1  0  0  0  0
 18 35  1  0  0  0  0
 19 20  1  0  0  0  0
 20 21  1  0  0  0  0
 21 36  1  0  0  0  0
 21 37  1  0  0  0  0
 22 23  1  0  0  0  0
 23 24  1  0  0  0  0
 23 38  1  0  0  0  0
 23 39  1  0  0  0  0
M  END
>  <Energy>
87.2569

$$$$

 OpenBabel04232614443D

 38 43  0  0  1  0  0  0  0  0999 V2000
    1.0828   -0.0114    0.0730 O   0  0  0  0  0  0  0  0  0  0  0  0
    2.2985    0.1351    0.0956 C   0  0  0  0  0  0  0  0  0  0  0  0
    3.1555   -0.9559    0.1288 N   0  0  0  0  0  0  0  0  0  0  0  0
    4.5570   -0.6658    0.0916 C   0  0  3  0  0  0  0  0  0  0  0  0
    5.1079   -1.2282    1.2523 O   0  0  0  0  0  0  0  0  0  0  0  0
    4.5231    0.8024    0.1069 C   0  0  0  0  0  0  0  0  0  0  0  0
    3.1737    1.2759    0.1025 C   0  0  0  0  0  0  0  0  0  0  0  0
    2.9461    2.6778    0.0994 C   0  0  0  0  0  0  0  0  0  0  0  0
    1.7259    3.3528    0.0944 C   0  0  0  0  0  0  0  0  0  0  0  0
    0.3493    3.0574    0.0914 C   0  0  0  0  0  0  0  0  0  0  0  0
   -0.5871    4.1004    0.0887 C   0  0  0  0  0  0  0  0  0  0  0  0
   -0.1771    5.4295    0.0886 C   0  0  0  0  0  0  0  0  0  0  0  0
    1.1789    5.7597    0.0901 C   0  0  0  0  0  0  0  0  0  0  0  0
    2.1091    4.7116    0.0927 C   0  0  0  0  0  0  0  0  0  0  0  0
    3.4988    4.7785    0.0936 N   0  0  0  0  0  0  0  0  0  0  0  0
    4.0152    3.5183    0.0979 C   0  0  0  0  0  0  0  0  0  0  0  0
    5.3079    3.0550    0.0976 C   0  0  0  0  0  0  0  0  0  0  0  0
    6.5137    3.6896    0.0915 N   0  0  0  0  0  0  0  0  0  0  0  0
    7.5373    2.7442    0.0885 C   0  0  0  0  0  0  0  0  0  0  0  0
    8.9235    2.9459    0.0842 C   0  0  0  0  0  0  0  0  0  0  0  0
    9.7459    1.8178    0.0836 C   0  0  0  0  0  0  0  0  0  0  0  0
    9.2026    0.5355    0.0870 C   0  0  0  0  0  0  0  0  0  0  0  0
    7.8144    0.3402    0.0917 C   0  0  0  0  0  0  0  0  0  0  0  0
    6.9576    1.4574    0.0928 C   0  0  0  0  0  0  0  0  0  0  0  0
    5.5925    1.7288    0.1005 C   0  0  0  0  0  0  0  0  0  0  0  0
    2.7852   -1.8928    0.0913 H   0  0  0  0  0  0  0  0  0  0  0  0
    5.0003   -1.0823   -0.8161 H   0  0  0  0  0  0  0  0  0  0  0  0
    4.6207   -0.8255    1.9899 H   0  0  0  0  0  0  0  0  0  0  0  0
   -0.0106    2.0342    0.0909 H   0  0  0  0  0  0  0  0  0  0  0  0
   -1.6484    3.8620    0.0866 H   0  0  0  0  0  0  0  0  0  0  0  0
   -0.9219    6.2218    0.0869 H   0  0  0  0  0  0  0  0  0  0  0  0
    1.4946    6.7982    0.0893 H   0  0  0  0  0  0  0  0  0  0  0  0
    4.0262    5.6383    0.0906 H   0  0  0  0  0  0  0  0  0  0  0  0
    6.6616    4.6877    0.0885 H   0  0  0  0  0  0  0  0  0  0  0  0
    9.3518    3.9432    0.0837 H   0  0  0  0  0  0  0  0  0  0  0  0
   10.8264    1.9438    0.0830 H   0  0  0  0  0  0  0  0  0  0  0  0
    9.8641   -0.3280    0.0900 H   0  0  0  0  0  0  0  0  0  0  0  0
    7.4229   -0.6718    0.1038 H   0  0  0  0  0  0  0  0  0  0  0  0
  1  2  2  0  0  0  0
  2  3  1  0  0  0  0
  2  7  1  0  0  0  0
  3  4  1  0  0  0  0
  3 26  1  0  0  0  0
  4  5  1  0  0  0  0
  4  6  1  0  0  0  0
  4 27  1  0  0  0  0
  5 28  1  0  0  0  0
  6  7  1  0  0  0  0
  6 25  2  0  0  0  0
  7  8  2  0  0  0  0
  8  9  1  0  0  0  0
  8 16  1  0  0  0  0
  9 10  1  0  0  0  0
  9 14  2  0  0  0  0
 10 11  2  0  0  0  0
 10 29  1  0  0  0  0
 11 12  1  0  0  0  0
 11 30  1  0  0  0  0
 12 13  2  0  0  0  0
 12 31  1  0  0  0  0
 13 14  1  0  0  0  0
 13 32  1  0  0  0  0
 14 15  1  0  0  0  0
 15 16  1  0  0  0  0
 15 33  1  0  0  0  0
 16 17  2  0  0  0  0
 17 18  1  0  0  0  0
 17 25  1  0  0  0  0
 18 19  1  0  0  0  0
 18 34  1  0  0  0  0
 19 20  1  0  0  0  0
 19 24  2  0  0  0  0
 20 21  2  0  0  0  0
 20 35  1  0  0  0  0
 21 22  1  0  0  0  0
 21 36  1  0  0  0  0
 22 23  2  0  0  0  0
 22 37  1  0  0  0  0
 23 24  1  0  0  0  0
 23 38  1  0  0  0  0
 24 25  1  0  0  0  0
M  END
>  <Energy>
19.5919

$$$$

 OpenBabel04232614443D

 48 50  0  0  1  0  0  0  0  0999 V2000
    2.8049    5.2296    0.5792 C   0  0  0  0  0  0  0  0  0  0  0  0
    1.7657    4.9814    1.6687 C   0  0  0  0  0  0  0  0  0  0  0  0
    0.5109    4.4224    1.0500 C   0  0  0  0  0  0  0  0  0  0  0  0
   -0.3063    5.3981    0.5539 N   0  0  0  0  0  0  0  0  0  0  0  0
   -1.3664    5.0228   -0.1742 C   0  0  0  0  0  0  0  0  0  0  0  0
   -2.2061    6.1112   -0.7666 C   0  0  0  0  0  0  0  0  0  0  0  0
   -1.6644    3.7487   -0.4615 N   0  0  0  0  0  0  0  0  0  0  0  0
   -0.8381    2.8033    0.0619 C   0  0  0  0  0  0  0  0  0  0  0  0
    0.2531    3.0616    0.8707 C   0  0  0  0  0  0  0  0  0  0  0  0
    1.1423    1.9771    1.3995 C   0  0  0  0  0  0  0  0  0  0  0  0
    2.3423    2.2329    1.4719 O   0  0  0  0  0  0  0  0  0  0  0  0
    0.6490    0.7014    1.7581 N   0  0  0  0  0  0  0  0  0  0  0  0
    1.6025   -0.2887    2.3137 C   0  0  0  0  0  0  0  0  0  0  0  0
    1.7854   -1.6056    1.5342 C   0  0  3  0  0  0  0  0  0  0  0  0
    2.8283   -2.4845    2.2368 C   0  0  0  0  0  0  0  0  0  0  0  0
    0.4835   -2.3959    1.4099 C   0  0  0  0  0  0  0  0  0  0  0  0
   -0.4653   -1.6262    0.6179 N   0  0  0  0  0  0  0  0  0  0  0  0
   -0.9799   -2.2050   -0.6095 C   0  0  0  0  0  0  0  0  0  0  0  0
   -1.2737   -0.7947    1.3988 C   0  0  0  0  0  0  0  0  0  0  0  0
   -2.6226   -1.0926    1.6350 C   0  0  0  0  0  0  0  0  0  0  0  0
   -3.4169   -0.2573    2.4238 C   0  0  0  0  0  0  0  0  0  0  0  0
   -2.8750    0.8967    2.9834 C   0  0  0  0  0  0  0  0  0  0  0  0
   -1.5352    1.2159    2.7644 C   0  0  0  0  0  0  0  0  0  0  0  0
   -0.7286    0.3798    1.9796 C   0  0  0  0  0  0  0  0  0  0  0  0
    3.7608    5.5371    1.0181 H   0  0  0  0  0  0  0  0  0  0  0  0
    2.4757    6.0262   -0.0976 H   0  0  0  0  0  0  0  0  0  0  0  0
    2.9778    4.3372   -0.0307 H   0  0  0  0  0  0  0  0  0  0  0  0
    1.5297    5.9406    2.1500 H   0  0  0  0  0  0  0  0  0  0  0  0
    2.1540    4.3481    2.4696 H   0  0  0  0  0  0  0  0  0  0  0  0
   -1.9449    7.0857   -0.3379 H   0  0  0  0  0  0  0  0  0  0  0  0
   -3.2664    5.9266   -0.5721 H   0  0  0  0  0  0  0  0  0  0  0  0
   -2.0431    6.1573   -1.8473 H   0  0  0  0  0  0  0  0  0  0  0  0
   -1.0925    1.7930   -0.2393 H   0  0  0  0  0  0  0  0  0  0  0  0
    1.2876   -0.4995    3.3453 H   0  0  0  0  0  0  0  0  0  0  0  0
    2.5905    0.1765    2.4048 H   0  0  0  0  0  0  0  0  0  0  0  0
    2.1547   -1.3698    0.5273 H   0  0  0  0  0  0  0  0  0  0  0  0
    2.5039   -2.7523    3.2498 H   0  0  0  0  0  0  0  0  0  0  0  0
    3.7908   -1.9703    2.3152 H   0  0  0  0  0  0  0  0  0  0  0  0
    2.9918   -3.4168    1.6842 H   0  0  0  0  0  0  0  0  0  0  0  0
    0.0771   -2.6488    2.4012 H   0  0  0  0  0  0  0  0  0  0  0  0
    0.6840   -3.3588    0.9221 H   0  0  0  0  0  0  0  0  0  0  0  0
   -0.1788   -2.7137   -1.1509 H   0  0  0  0  0  0  0  0  0  0  0  0
   -1.3542   -1.4138   -1.2708 H   0  0  0  0  0  0  0  0  0  0  0  0
   -1.7773   -2.9320   -0.4278 H   0  0  0  0  0  0  0  0  0  0  0  0
   -3.0651   -1.9999    1.2326 H   0  0  0  0  0  0  0  0  0  0  0  0
   -4.4568   -0.5155    2.6070 H   0  0  0  0  0  0  0  0  0  0  0  0
   -3.4944    1.5432    3.5993 H   0  0  0  0  0  0  0  0  0  0  0  0
   -1.1252    2.1044    3.2359 H   0  0  0  0  0  0  0  0  0  0  0  0
  1  2  1  0  0  0  0
  1 25  1  0  0  0  0
  1 26  1  0  0  0  0
  1 27  1  0  0  0  0
  2  3  1  0  0  0  0
  2 28  1  0  0  0  0
  2 29  1  0  0  0  0
  3  4  1  0  0  0  0
  3  9  2  0  0  0  0
  4  5  2  0  0  0  0
  5  6  1  0  0  0  0
  5  7  1  0  0  0  0
  6 30  1  0  0  0  0
  6 31  1  0  0  0  0
  6 32  1  0  0  0  0
  7  8  2  0  0  0  0
  8  9  1  0  0  0  0
  8 33  1  0  0  0  0
  9 10  1  0  0  0  0
 10 11  2  0  0  0  0
 10 12  1  0  0  0  0
 12 13  1  0  0  0  0
 12 24  1  0  0  0  0
 13 14  1  0  0  0  0
 13 34  1  0  0  0  0
 13 35  1  0  0  0  0
 14 15  1  0  0  0  0
 14 16  1  0  0  0  0
 14 36  1  0  0  0  0
 15 37  1  0  0  0  0
 15 38  1  0  0  0  0
 15 39  1  0  0  0  0
 16 17  1  0  0  0  0
 16 40  1  0  0  0  0
 16 41  1  0  0  0  0
 17 18  1  0  0  0  0
 17 19  1  0  0  0  0
 18 42  1  0  0  0  0
 18 43  1  0  0  0  0
 18 44  1  0  0  0  0
 19 20  1  0  0  0  0
 19 24  2  0  0  0  0
 20 21  2  0  0  0  0
 20 45  1  0  0  0  0
 21 22  1  0  0  0  0
 21 46  1  0  0  0  0
 22 23  2  0  0  0  0
 22 47  1  0  0  0  0
 23 24  1  0  0  0  0
 23 48  1  0  0  0  0
M  END
>  <Energy>
66.9362

$$$$

 OpenBabel04232614443D

 35 37  0  0  0  0  0  0  0  0999 V2000
    1.1100   -0.1541    0.5789 C   0  0  0  0  0  0  0  0  0  0  0  0
    2.4990    0.0350    0.3225 O   0  0  0  0  0  0  0  0  0  0  0  0
    3.0763    1.1449    0.8822 C   0  0  0  0  0  0  0  0  0  0  0  0
    2.6049    1.6896    2.0868 C   0  0  0  0  0  0  0  0  0  0  0  0
    3.2075    2.8148    2.6534 C   0  0  0  0  0  0  0  0  0  0  0  0
    4.3026    3.4069    2.0328 C   0  0  0  0  0  0  0  0  0  0  0  0
    4.8719    4.5919    2.5975 C   0  0  0  0  0  0  0  0  0  0  0  0
    5.2646    5.6176    3.0893 C   0  0  0  0  0  0  0  0  0  0  0  0
    5.6536    6.8644    3.6803 C   0  0  0  0  0  0  0  0  0  0  0  0
    6.5541    6.8670    4.7387 C   0  0  0  0  0  0  0  0  0  0  0  0
    6.9660    7.9831    5.3733 N   0  0  0  0  0  0  0  0  0  0  0  0
    6.4491    9.1446    4.9257 C   0  0  0  0  0  0  0  0  0  0  0  0
    7.0305   10.5109    5.7990 Cl  0  0  0  0  0  0  0  0  0  0  0  0
    5.5346    9.2508    3.8697 C   0  0  0  0  0  0  0  0  0  0  0  0
    4.9774   10.4335    3.3827 C   0  0  0  0  0  0  0  0  0  0  0  0
    4.0972   10.4917    2.3662 N   0  0  0  0  0  0  0  0  0  0  0  0
    3.7704    9.3151    1.8256 C   0  0  0  0  0  0  0  0  0  0  0  0
    4.2401    8.1193    2.2095 N   0  0  0  0  0  0  0  0  0  0  0  0
    5.1240    8.0783    3.2297 C   0  0  0  0  0  0  0  0  0  0  0  0
    4.8021    2.8546    0.8529 C   0  0  0  0  0  0  0  0  0  0  0  0
    4.1997    1.7258    0.2658 C   0  0  0  0  0  0  0  0  0  0  0  0
    4.8251    1.3543   -0.8972 O   0  0  0  0  0  0  0  0  0  0  0  0
    4.3022    0.2667   -1.6456 C   0  0  0  0  0  0  0  0  0  0  0  0
    0.7467   -0.9325   -0.0988 H   0  0  0  0  0  0  0  0  0  0  0  0
    0.5369    0.7581    0.3786 H   0  0  0  0  0  0  0  0  0  0  0  0
    0.9447   -0.5077    1.6013 H   0  0  0  0  0  0  0  0  0  0  0  0
    1.7664    1.2514    2.6185 H   0  0  0  0  0  0  0  0  0  0  0  0
    2.8096    3.2251    3.5785 H   0  0  0  0  0  0  0  0  0  0  0  0
    6.9794    5.9418    5.1208 H   0  0  0  0  0  0  0  0  0  0  0  0
    5.2275   11.4032    3.8063 H   0  0  0  0  0  0  0  0  0  0  0  0
    3.0622    9.3251    1.0041 H   0  0  0  0  0  0  0  0  0  0  0  0
    5.6634    3.3065    0.3644 H   0  0  0  0  0  0  0  0  0  0  0  0
    4.8816    0.1944   -2.5713 H   0  0  0  0  0  0  0  0  0  0  0  0
    3.2613    0.4382   -1.9373 H   0  0  0  0  0  0  0  0  0  0  0  0
    4.4304   -0.6775   -1.1071 H   0  0  0  0  0  0  0  0  0  0  0  0
  1  2  1  0  0  0  0
  1 24  1  0  0  0  0
  1 25  1  0  0  0  0
  1 26  1  0  0  0  0
  2  3  1  0  0  0  0
  3  4  1  0  0  0  0
  3 21  2  0  0  0  0
  4  5  2  0  0  0  0
  4 27  1  0  0  0  0
  5  6  1  0  0  0  0
  5 28  1  0  0  0  0
  6  7  1  0  0  0  0
  6 20  2  0  0  0  0
  7  8  3  0  0  0  0
  8  9  1  0  0  0  0
  9 10  1  0  0  0  0
  9 19  2  0  0  0  0
 10 11  2  0  0  0  0
 10 29  1  0  0  0  0
 11 12  1  0  0  0  0
 12 13  1  0  0  0  0
 12 14  2  0  0  0  0
 14 15  1  0  0  0  0
 14 19  1  0  0  0  0
 15 16  2  0  0  0  0
 15 30  1  0  0  0  0
 16 17  1  0  0  0  0
 17 18  2  0  0  0  0
 17 31  1  0  0  0  0
 18 19  1  0  0  0  0
 20 21  1  0  0  0  0
 20 32  1  0  0  0  0
 21 22  1  0  0  0  0
 22 23  1  0  0  0  0
 23 33  1  0  0  0  0
 23 34  1  0  0  0  0
 23 35  1  0  0  0  0
M  END
>  <Energy>
45.6362

$$$$

 OpenBabel04232614443D

 44 46  0  0  0  0  0  0  0  0999 V2000
    1.7524    1.0177    1.1974 N   0  0  0  0  0  0  0  0  0  0  0  0
    1.7545    0.5217    0.1496 C   0  0  0  0  0  0  0  0  0  0  0  0
    1.7895   -0.1278   -1.1801 C   0  0  0  0  0  0  0  0  0  0  0  0
    1.2024    0.8701   -2.2203 C   0  0  0  0  0  0  0  0  0  0  0  0
    0.2570    0.4991   -2.9296 O   0  0  0  0  0  0  0  0  0  0  0  0
    1.7004    2.1670   -2.3734 N   0  0  0  0  0  0  0  0  0  0  0  0
    2.9077    2.7434   -1.7679 C   0  0  0  0  0  0  0  0  0  0  0  0
    4.0837    2.9251   -2.7305 C   0  0  0  0  0  0  0  0  0  0  0  0
    3.8432    3.7282   -4.0072 C   0  0  0  0  0  0  0  0  0  0  0  0
    2.6510    4.5526   -3.9548 N   0  0  0  0  0  0  0  0  0  0  0  0
    2.6382    5.8702   -3.5968 C   0  0  0  0  0  0  0  0  0  0  0  0
    1.5265    6.5678   -3.4629 N   0  0  0  0  0  0  0  0  0  0  0  0
    1.7943    7.8897   -3.1697 C   0  0  0  0  0  0  0  0  0  0  0  0
    3.1249    8.2116   -3.0545 C   0  0  0  0  0  0  0  0  0  0  0  0
    4.0696    6.8083   -3.2925 S   0  0  0  0  0  0  0  0  0  0  0  0
    1.3843    3.8719   -4.2454 C   0  0  0  0  0  0  0  0  0  0  0  0
    0.8064    3.1595   -3.0162 C   0  0  0  0  0  0  0  0  0  0  0  0
    0.8793   -1.3936   -1.1029 C   0  0  0  0  0  0  0  0  0  0  0  0
    1.4261   -2.4849   -0.1750 C   0  0  0  0  0  0  0  0  0  0  0  0
    2.8480   -2.8825   -0.5485 C   0  0  0  0  0  0  0  0  0  0  0  0
    3.7679   -1.6722   -0.6395 C   0  0  0  0  0  0  0  0  0  0  0  0
    3.2073   -0.5921   -1.5705 C   0  0  0  0  0  0  0  0  0  0  0  0
    3.2626    2.1226   -0.9480 H   0  0  0  0  0  0  0  0  0  0  0  0
    2.6372    3.6994   -1.3055 H   0  0  0  0  0  0  0  0  0  0  0  0
    4.4757    1.9437   -3.0253 H   0  0  0  0  0  0  0  0  0  0  0  0
    4.8946    3.4063   -2.1687 H   0  0  0  0  0  0  0  0  0  0  0  0
    3.7494    3.0254   -4.8454 H   0  0  0  0  0  0  0  0  0  0  0  0
    4.7428    4.3041   -4.2542 H   0  0  0  0  0  0  0  0  0  0  0  0
    0.9715    8.5850   -3.0554 H   0  0  0  0  0  0  0  0  0  0  0  0
    3.5707    9.1727   -2.8435 H   0  0  0  0  0  0  0  0  0  0  0  0
    1.5402    3.1373   -5.0450 H   0  0  0  0  0  0  0  0  0  0  0  0
    0.6383    4.5744   -4.6381 H   0  0  0  0  0  0  0  0  0  0  0  0
   -0.1398    2.6938   -3.3120 H   0  0  0  0  0  0  0  0  0  0  0  0
    0.5475    3.8925   -2.2423 H   0  0  0  0  0  0  0  0  0  0  0  0
    0.7621   -1.8286   -2.1049 H   0  0  0  0  0  0  0  0  0  0  0  0
   -0.1306   -1.1209   -0.7674 H   0  0  0  0  0  0  0  0  0  0  0  0
    0.7760   -3.3663   -0.2237 H   0  0  0  0  0  0  0  0  0  0  0  0
    1.4023   -2.1402    0.8658 H   0  0  0  0  0  0  0  0  0  0  0  0
    2.8384   -3.4045   -1.5128 H   0  0  0  0  0  0  0  0  0  0  0  0
    3.2406   -3.5893    0.1918 H   0  0  0  0  0  0  0  0  0  0  0  0
    4.7530   -1.9894   -1.0005 H   0  0  0  0  0  0  0  0  0  0  0  0
    3.9243   -1.2536    0.3621 H   0  0  0  0  0  0  0  0  0  0  0  0
    3.1853   -0.9866   -2.5962 H   0  0  0  0  0  0  0  0  0  0  0  0
    3.9234    0.2308   -1.5850 H   0  0  0  0  0  0  0  0  0  0  0  0
  1  2  3  0  0  0  0
  2  3  1  0  0  0  0
  3  4  1  0  0  0  0
  3 18  1  0  0  0  0
  3 22  1  0  0  0  0
  4  5  2  0  0  0  0
  4  6  1  0  0  0  0
  6  7  1  0  0  0  0
  6 17  1  0  0  0  0
  7  8  1  0  0  0  0
  7 23  1  0  0  0  0
  7 24  1  0  0  0  0
  8  9  1  0  0  0  0
  8 25  1  0  0  0  0
  8 26  1  0  0  0  0
  9 10  1  0  0  0  0
  9 27  1  0  0  0  0
  9 28  1  0  0  0  0
 10 11  1  0  0  0  0
 10 16  1  0  0  0  0
 11 12  2  0  0  0  0
 11 15  1  0  0  0  0
 12 13  1  0  0  0  0
 13 14  2  0  0  0  0
 13 29  1  0  0  0  0
 14 15  1  0  0  0  0
 14 30  1  0  0  0  0
 16 17  1  0  0  0  0
 16 31  1  0  0  0  0
 16 32  1  0  0  0  0
 17 33  1  0  0  0  0
 17 34  1  0  0  0  0
 18 19  1  0  0  0  0
 18 35  1  0  0  0  0
 18 36  1  0  0  0  0
 19 20  1  0  0  0  0
 19 37  1  0  0  0  0
 19 38  1  0  0  0  0
 20 21  1  0  0  0  0
 20 39  1  0  0  0  0
 20 40  1  0  0  0  0
 21 22  1  0  0  0  0
 21 41  1  0  0  0  0
 21 42  1  0  0  0  0
 22 43  1  0  0  0  0
 22 44  1  0  0  0  0
M  END
>  <Energy>
11.1573

$$$$

 OpenBabel04232614443D

 41 44  0  0  0  0  0  0  0  0999 V2000
    0.3293   -0.2504    3.8946 C   0  0  0  0  0  0  0  0  0  0  0  0
   -0.0423   -0.2255    2.4409 C   0  0  0  0  0  0  0  0  0  0  0  0
    0.3556    0.8305    1.6161 C   0  0  0  0  0  0  0  0  0  0  0  0
   -0.0108    0.8480    0.2706 C   0  0  0  0  0  0  0  0  0  0  0  0
   -0.7658   -0.1970   -0.2671 C   0  0  0  0  0  0  0  0  0  0  0  0
   -1.1512   -1.2810    0.5344 C   0  0  0  0  0  0  0  0  0  0  0  0
   -1.9170   -2.4510   -0.0451 C   0  0  0  0  0  0  0  0  0  0  0  0
   -3.3588   -2.2808    0.0291 N   0  0  0  0  0  0  0  0  0  0  0  0
   -4.0327   -1.6820   -1.0206 C   0  0  0  0  0  0  0  0  0  0  0  0
   -5.3043   -1.4417   -1.1039 N   0  0  0  0  0  0  0  0  0  0  0  0
   -6.0397   -1.8504    0.0207 C   0  0  0  0  0  0  0  0  0  0  0  0
   -5.4537   -2.4908    1.0756 C   0  0  0  0  0  0  0  0  0  0  0  0
   -6.5749   -2.9180    2.2698 S   0  0  0  0  0  0  0  0  0  0  0  0
   -7.8583   -2.2079    1.3841 C   0  0  0  0  0  0  0  0  0  0  0  0
   -9.1138   -2.2348    1.8773 N   0  0  0  0  0  0  0  0  0  0  0  0
  -10.0348   -1.6290    1.1020 C   0  0  0  0  0  0  0  0  0  0  0  0
  -11.4530   -1.6415    1.5992 C   0  0  0  0  0  0  0  0  0  0  0  0
   -9.7471   -1.0046   -0.1083 C   0  0  0  0  0  0  0  0  0  0  0  0
   -8.4341   -0.9919   -0.6037 C   0  0  0  0  0  0  0  0  0  0  0  0
   -8.1319   -0.2947   -1.8994 C   0  0  0  0  0  0  0  0  0  0  0  0
   -7.4440   -1.6377    0.1809 C   0  0  0  0  0  0  0  0  0  0  0  0
   -4.0437   -2.7641    1.1478 C   0  0  0  0  0  0  0  0  0  0  0  0
   -3.4902   -3.3620    2.0649 O   0  0  0  0  0  0  0  0  0  0  0  0
   -0.7963   -1.2742    1.8932 C   0  0  0  0  0  0  0  0  0  0  0  0
    0.9144    0.6319    4.1753 H   0  0  0  0  0  0  0  0  0  0  0  0
    0.9327   -1.1368    4.1157 H   0  0  0  0  0  0  0  0  0  0  0  0
   -0.5735   -0.2642    4.5135 H   0  0  0  0  0  0  0  0  0  0  0  0
    0.9522    1.6475    2.0164 H   0  0  0  0  0  0  0  0  0  0  0  0
    0.3004    1.6776   -0.3602 H   0  0  0  0  0  0  0  0  0  0  0  0
   -1.0324   -0.1595   -1.3208 H   0  0  0  0  0  0  0  0  0  0  0  0
   -1.6215   -3.3727    0.4696 H   0  0  0  0  0  0  0  0  0  0  0  0
   -1.6259   -2.5822   -1.0951 H   0  0  0  0  0  0  0  0  0  0  0  0
   -3.3852   -1.3987   -1.8657 H   0  0  0  0  0  0  0  0  0  0  0  0
  -11.5290   -2.1705    2.5545 H   0  0  0  0  0  0  0  0  0  0  0  0
  -12.1008   -2.1490    0.8771 H   0  0  0  0  0  0  0  0  0  0  0  0
  -11.8121   -0.6179    1.7459 H   0  0  0  0  0  0  0  0  0  0  0  0
  -10.5463   -0.5254   -0.6683 H   0  0  0  0  0  0  0  0  0  0  0  0
   -9.0332    0.1398   -2.3440 H   0  0  0  0  0  0  0  0  0  0  0  0
   -7.7093   -1.0006   -2.6205 H   0  0  0  0  0  0  0  0  0  0  0  0
   -7.4198    0.5191   -1.7279 H   0  0  0  0  0  0  0  0  0  0  0  0
   -1.1004   -2.1012    2.5350 H   0  0  0  0  0  0  0  0  0  0  0  0
  1  2  1  0  0  0  0
  1 25  1  0  0  0  0
  1 26  1  0  0  0  0
  1 27  1  0  0  0  0
  2  3  1  0  0  0  0
  2 24  2  0  0  0  0
  3  4  2  0  0  0  0
  3 28  1  0  0  0  0
  4  5  1  0  0  0  0
  4 29  1  0  0  0  0
  5  6  2  0  0  0  0
  5 30  1  0  0  0  0
  6  7  1  0  0  0  0
  6 24  1  0  0  0  0
  7  8  1  0  0  0  0
  7 31  1  0  0  0  0
  7 32  1  0  0  0  0
  8  9  1  0  0  0  0
  8 22  1  0  0  0  0
  9 10  2  0  0  0  0
  9 33  1  0  0  0  0
 10 11  1  0  0  0  0
 11 12  2  0  0  0  0
 11 21  1  0  0  0  0
 12 13  1  0  0  0  0
 12 22  1  0  0  0  0
 13 14  1  0  0  0  0
 14 15  1  0  0  0  0
 14 21  2  0  0  0  0
 15 16  2  0  0  0  0
 16 17  1  0  0  0  0
 16 18  1  0  0  0  0
 17 34  1  0  0  0  0
 17 35  1  0  0  0  0
 17 36  1  0  0  0  0
 18 19  2  0  0  0  0
 18 37  1  0  0  0  0
 19 20  1  0  0  0  0
 19 21  1  0  0  0  0
 20 38  1  0  0  0  0
 20 39  1  0  0  0  0
 20 40  1  0  0  0  0
 22 23  2  0  0  0  0
 24 41  1  0  0  0  0
M  END
>  <Energy>
1.01725

$$$$

 OpenBabel04232614443D

 46 49  0  0  0  0  0  0  0  0999 V2000
    2.4188   -0.5889    1.1483 O   0  0  0  0  0  0  0  0  0  0  0  0
    2.4216   -0.0623    0.0327 C   0  0  0  0  0  0  0  0  0  0  0  0
    3.1713   -0.7623   -1.0799 C   0  0  0  0  0  0  0  0  0  0  0  0
    2.6671   -0.6803   -2.3176 N   0  0  0  0  0  0  0  0  0  0  0  0
    3.3454   -1.2518   -3.3037 C   0  0  0  0  0  0  0  0  0  0  0  0
    2.8657   -1.0587   -4.5923 C   0  0  0  0  0  0  0  0  0  0  0  0
    3.5067   -1.5979   -5.7057 C   0  0  0  0  0  0  0  0  0  0  0  0
    4.6212   -2.3992   -5.5253 C   0  0  0  0  0  0  0  0  0  0  0  0
    5.1022   -2.6217   -4.2355 C   0  0  0  0  0  0  0  0  0  0  0  0
    4.5110   -1.9979   -3.1006 C   0  0  0  0  0  0  0  0  0  0  0  0
    4.9646   -2.0325   -1.7582 C   0  0  0  0  0  0  0  0  0  0  0  0
    6.2271   -2.6788   -1.3131 C   0  0  0  0  0  0  0  0  0  0  0  0
    7.4094   -2.6334   -2.0757 C   0  0  0  0  0  0  0  0  0  0  0  0
    8.5689   -3.3035   -1.6761 C   0  0  0  0  0  0  0  0  0  0  0  0
    8.5961   -3.9791   -0.4620 C   0  0  0  0  0  0  0  0  0  0  0  0
    7.4686   -3.9759    0.3535 C   0  0  0  0  0  0  0  0  0  0  0  0
    6.2976   -3.3380   -0.0708 C   0  0  0  0  0  0  0  0  0  0  0  0
    4.2913   -1.4242   -0.7512 N   0  0  0  0  0  0  0  0  0  0  0  0
    1.7489    1.1681   -0.2033 N   0  0  0  0  0  0  0  0  0  0  0  0
    1.7313    1.9145   -1.4665 C   0  0  0  0  0  0  0  0  0  0  0  0
    2.8757    2.9197   -1.5519 C   0  0  0  0  0  0  0  0  0  0  0  0
    2.6364    4.1892   -0.7373 C   0  0  0  0  0  0  0  0  0  0  0  0
    2.3175    3.9593    0.7405 C   0  0  0  0  0  0  0  0  0  0  0  0
    0.9650    3.2806    0.9614 C   0  0  0  0  0  0  0  0  0  0  0  0
    1.0261    1.7514    0.9239 C   0  0  0  0  0  0  0  0  0  0  0  0
    1.9744   -0.4509   -4.7371 H   0  0  0  0  0  0  0  0  0  0  0  0
    3.1238   -1.4009   -6.7034 H   0  0  0  0  0  0  0  0  0  0  0  0
    5.1192   -2.8492   -6.3801 H   0  0  0  0  0  0  0  0  0  0  0  0
    5.9527   -3.2887   -4.1264 H   0  0  0  0  0  0  0  0  0  0  0  0
    7.4502   -2.0644   -3.0013 H   0  0  0  0  0  0  0  0  0  0  0  0
    9.4502   -3.2863   -2.3119 H   0  0  0  0  0  0  0  0  0  0  0  0
    9.4999   -4.4908   -0.1431 H   0  0  0  0  0  0  0  0  0  0  0  0
    7.4952   -4.4694    1.3216 H   0  0  0  0  0  0  0  0  0  0  0  0
    5.4287   -3.3513    0.5874 H   0  0  0  0  0  0  0  0  0  0  0  0
    0.7568    2.4016   -1.5789 H   0  0  0  0  0  0  0  0  0  0  0  0
    1.7928    1.2559   -2.3251 H   0  0  0  0  0  0  0  0  0  0  0  0
    2.9994    3.2177   -2.6009 H   0  0  0  0  0  0  0  0  0  0  0  0
    3.8203    2.4547   -1.2452 H   0  0  0  0  0  0  0  0  0  0  0  0
    1.8216    4.7624   -1.1983 H   0  0  0  0  0  0  0  0  0  0  0  0
    3.5309    4.8198   -0.8109 H   0  0  0  0  0  0  0  0  0  0  0  0
    2.2864    4.9429    1.2253 H   0  0  0  0  0  0  0  0  0  0  0  0
    3.1228    3.3950    1.2247 H   0  0  0  0  0  0  0  0  0  0  0  0
    0.2335    3.6513    0.2328 H   0  0  0  0  0  0  0  0  0  0  0  0
    0.5767    3.5726    1.9448 H   0  0  0  0  0  0  0  0  0  0  0  0
    0.0042    1.3562    0.8739 H   0  0  0  0  0  0  0  0  0  0  0  0
    1.4530    1.3969    1.8682 H   0  0  0  0  0  0  0  0  0  0  0  0
  1  2  2  0  0  0  0
  2  3  1  0  0  0  0
  2 19  1  0  0  0  0
  3  4  1  0  0  0  0
  3 18  2  0  0  0  0
  4  5  2  0  0  0  0
  5  6  1  0  0  0  0
  5 10  1  0  0  0  0
  6  7  2  0  0  0  0
  6 26  1  0  0  0  0
  7  8  1  0  0  0  0
  7 27  1  0  0  0  0
  8  9  2  0  0  0  0
  8 28  1  0  0  0  0
  9 10  1  0  0  0  0
  9 29  1  0  0  0  0
 10 11  2  0  0  0  0
 11 12  1  0  0  0  0
 11 18  1  0  0  0  0
 12 13  1  0  0  0  0
 12 17  2  0  0  0  0
 13 14  2  0  0  0  0
 13 30  1  0  0  0  0
 14 15  1  0  0  0  0
 14 31  1  0  0  0  0
 15 16  2  0  0  0  0
 15 32  1  0  0  0  0
 16 17  1  0  0  0  0
 16 33  1  0  0  0  0
 17 34  1  0  0  0  0
 19 20  1  0  0  0  0
 19 25  1  0  0  0  0
 20 21  1  0  0  0  0
 20 35  1  0  0  0  0
 20 36  1  0  0  0  0
 21 22  1  0  0  0  0
 21 37  1  0  0  0  0
 21 38  1  0  0  0  0
 22 23  1  0  0  0  0
 22 39  1  0  0  0  0
 22 40  1  0  0  0  0
 23 24  1  0  0  0  0
 23 41  1  0  0  0  0
 23 42  1  0  0  0  0
 24 25  1  0  0  0  0
 24 43  1  0  0  0  0
 24 44  1  0  0  0  0
 25 45  1  0  0  0  0
 25 46  1  0  0  0  0
M  END
>  <Energy>
109.907

$$$$

 OpenBabel04232614443D

 35 37  0  0  0  0  0  0  0  0999 V2000
   -2.6280    0.9701    0.9265 C   0  0  0  0  0  0  0  0  0  0  0  0
   -1.3008    0.3762    0.5420 C   0  0  0  0  0  0  0  0  0  0  0  0
   -1.2397   -1.0312    0.5561 C   0  0  0  0  0  0  0  0  0  0  0  0
   -0.1241   -1.7146    0.0870 C   0  0  0  0  0  0  0  0  0  0  0  0
    0.9616   -1.0042   -0.4056 C   0  0  0  0  0  0  0  0  0  0  0  0
    0.9702    0.4010   -0.3953 C   0  0  0  0  0  0  0  0  0  0  0  0
    2.2244    1.0705   -0.9072 C   0  0  0  0  0  0  0  0  0  0  0  0
   -0.1647    1.1040    0.1079 C   0  0  0  0  0  0  0  0  0  0  0  0
   -0.1209    2.5283    0.1410 N   0  0  0  0  0  0  0  0  0  0  0  0
    0.3831    3.2161   -0.9139 N   0  0  0  0  0  0  0  0  0  0  0  0
    0.2569    4.4976   -0.6334 N   0  0  0  0  0  0  0  0  0  0  0  0
   -0.3088    4.6708    0.5904 N   0  0  0  0  0  0  0  0  0  0  0  0
   -0.5248    3.4675    1.0993 C   0  0  0  0  0  0  0  0  0  0  0  0
   -1.1164    3.2842    2.4255 C   0  0  0  0  0  0  0  0  0  0  0  0
   -2.2583    4.0506    2.6971 C   0  0  0  0  0  0  0  0  0  0  0  0
   -2.9714    4.0132    3.8462 N   0  0  0  0  0  0  0  0  0  0  0  0
   -2.5218    3.1929    4.8086 C   0  0  0  0  0  0  0  0  0  0  0  0
   -1.3823    2.4211    4.6691 C   0  0  0  0  0  0  0  0  0  0  0  0
   -0.6402    2.4745    3.4693 C   0  0  0  0  0  0  0  0  0  0  0  0
    0.6201    1.6535    3.4148 C   0  0  0  0  0  0  0  0  0  0  0  0
    1.4899    2.0224    2.4403 F   0  0  0  0  0  0  0  0  0  0  0  0
    1.3278    1.7164    4.5783 F   0  0  0  0  0  0  0  0  0  0  0  0
    0.3585    0.3335    3.2206 F   0  0  0  0  0  0  0  0  0  0  0  0
   -3.4472    0.3274    0.5795 H   0  0  0  0  0  0  0  0  0  0  0  0
   -2.7970    1.9419    0.4548 H   0  0  0  0  0  0  0  0  0  0  0  0
   -2.7134    1.0486    2.0118 H   0  0  0  0  0  0  0  0  0  0  0  0
   -2.0910   -1.6133    0.9071 H   0  0  0  0  0  0  0  0  0  0  0  0
   -0.1078   -2.8016    0.0876 H   0  0  0  0  0  0  0  0  0  0  0  0
    1.8184   -1.5576   -0.7867 H   0  0  0  0  0  0  0  0  0  0  0  0
    3.0452    0.3526   -1.0159 H   0  0  0  0  0  0  0  0  0  0  0  0
    2.5753    1.8344   -0.2063 H   0  0  0  0  0  0  0  0  0  0  0  0
    2.0494    1.5083   -1.8949 H   0  0  0  0  0  0  0  0  0  0  0  0
   -2.6553    4.7450    1.9562 H   0  0  0  0  0  0  0  0  0  0  0  0
   -3.1088    3.1793    5.7228 H   0  0  0  0  0  0  0  0  0  0  0  0
   -1.0629    1.7910    5.4963 H   0  0  0  0  0  0  0  0  0  0  0  0
  1  2  1  0  0  0  0
  1 24  1  0  0  0  0
  1 25  1  0  0  0  0
  1 26  1  0  0  0  0
  2  3  1  0  0  0  0
  2  8  2  0  0  0  0
  3  4  2  0  0  0  0
  3 27  1  0  0  0  0
  4  5  1  0  0  0  0
  4 28  1  0  0  0  0
  5  6  2  0  0  0  0
  5 29  1  0  0  0  0
  6  7  1  0  0  0  0
  6  8  1  0  0  0  0
  7 30  1  0  0  0  0
  7 31  1  0  0  0  0
  7 32  1  0  0  0  0
  8  9  1  0  0  0  0
  9 10  1  0  0  0  0
  9 13  1  0  0  0  0
 10 11  2  0  0  0  0
 11 12  1  0  0  0  0
 12 13  2  0  0  0  0
 13 14  1  0  0  0  0
 14 15  1  0  0  0  0
 14 19  2  0  0  0  0
 15 16  2  0  0  0  0
 15 33  1  0  0  0  0
 16 17  1  0  0  0  0
 17 18  2  0  0  0  0
 17 34  1  0  0  0  0
 18 19  1  0  0  0  0
 18 35  1  0  0  0  0
 19 20  1  0  0  0  0
 20 21  1  0  0  0  0
 20 22  1  0  0  0  0
 20 23  1  0  0  0  0
M  END
>  <Energy>
95.3526

$$$$

 OpenBabel04232614443D

 36 39  0  0  0  0  0  0  0  0999 V2000
    2.7085    2.6401   -1.0796 O   0  0  0  0  0  0  0  0  0  0  0  0
    1.8478    1.7936   -1.2376 C   0  0  0  0  0  0  0  0  0  0  0  0
    2.0257    0.6032   -2.0715 C   0  0  0  0  0  0  0  0  0  0  0  0
    0.9699   -0.1823   -1.8688 C   0  0  0  0  0  0  0  0  0  0  0  0
    0.1059    0.4820   -0.8869 C   0  0  0  0  0  0  0  0  0  0  0  0
   -0.8476   -0.0734   -0.3799 O   0  0  0  0  0  0  0  0  0  0  0  0
    0.6113    1.7255   -0.6788 N   0  0  0  0  0  0  0  0  0  0  0  0
    0.1887    2.6428    0.3675 C   0  0  0  0  0  0  0  0  0  0  0  0
   -1.3137    2.9388    0.3717 C   0  0  0  0  0  0  0  0  0  0  0  0
   -2.0143    2.1308    1.0025 O   0  0  0  0  0  0  0  0  0  0  0  0
   -1.8494    4.0992   -0.2127 N   0  0  0  0  0  0  0  0  0  0  0  0
   -1.1189    5.1458   -0.8897 C   0  0  0  0  0  0  0  0  0  0  0  0
   -0.0891    4.8469   -1.7917 C   0  0  0  0  0  0  0  0  0  0  0  0
    0.5801    5.8500   -2.5080 C   0  0  0  0  0  0  0  0  0  0  0  0
    0.2145    7.1800   -2.3600 C   0  0  0  0  0  0  0  0  0  0  0  0
   -0.8168    7.5076   -1.4891 C   0  0  0  0  0  0  0  0  0  0  0  0
   -1.4820    6.5044   -0.7632 C   0  0  0  0  0  0  0  0  0  0  0  0
   -2.7832    7.0310    0.3258 S   0  0  0  0  0  0  0  0  0  0  0  0
   -3.8201    5.6026    0.1547 C   0  0  0  0  0  0  0  0  0  0  0  0
   -5.2042    5.7741    0.3152 C   0  0  0  0  0  0  0  0  0  0  0  0
   -6.0699    4.6876    0.2205 C   0  0  0  0  0  0  0  0  0  0  0  0
   -5.5579    3.4263   -0.0487 C   0  0  0  0  0  0  0  0  0  0  0  0
   -4.1800    3.2522   -0.2040 C   0  0  0  0  0  0  0  0  0  0  0  0
   -3.2788    4.3287   -0.0830 C   0  0  0  0  0  0  0  0  0  0  0  0
    2.8875    0.4276   -2.6900 H   0  0  0  0  0  0  0  0  0  0  0  0
    0.7588   -1.1518   -2.2842 H   0  0  0  0  0  0  0  0  0  0  0  0
    0.7797    3.5612    0.3583 H   0  0  0  0  0  0  0  0  0  0  0  0
    0.4191    2.1559    1.3259 H   0  0  0  0  0  0  0  0  0  0  0  0
    0.1782    3.8260   -2.0275 H   0  0  0  0  0  0  0  0  0  0  0  0
    1.3747    5.5823   -3.2030 H   0  0  0  0  0  0  0  0  0  0  0  0
    0.7159    7.9579   -2.9302 H   0  0  0  0  0  0  0  0  0  0  0  0
   -1.1135    8.5494   -1.3879 H   0  0  0  0  0  0  0  0  0  0  0  0
   -5.6162    6.7593    0.5232 H   0  0  0  0  0  0  0  0  0  0  0  0
   -7.1393    4.8253    0.3557 H   0  0  0  0  0  0  0  0  0  0  0  0
   -6.2213    2.5690   -0.1332 H   0  0  0  0  0  0  0  0  0  0  0  0
   -3.8243    2.2498   -0.4357 H   0  0  0  0  0  0  0  0  0  0  0  0
  1  2  2  0  0  0  0
  2  3  1  0  0  0  0
  2  7  1  0  0  0  0
  3  4  2  0  0  0  0
  3 25  1  0  0  0  0
  4  5  1  0  0  0  0
  4 26  1  0  0  0  0
  5  6  2  0  0  0  0
  5  7  1  0  0  0  0
  7  8  1  0  0  0  0
  8  9  1  0  0  0  0
  8 27  1  0  0  0  0
  8 28  1  0  0  0  0
  9 10  2  0  0  0  0
  9 11  1  0  0  0  0
 11 12  1  0  0  0  0
 11 24  1  0  0  0  0
 12 13  1  0  0  0  0
 12 17  2  0  0  0  0
 13 14  2  0  0  0  0
 13 29  1  0  0  0  0
 14 15  1  0  0  0  0
 14 30  1  0  0  0  0
 15 16  2  0  0  0  0
 15 31  1  0  0  0  0
 16 17  1  0  0  0  0
 16 32  1  0  0  0  0
 17 18  1  0  0  0  0
 18 19  1  0  0  0  0
 19 20  1  0  0  0  0
 19 24  2  0  0  0  0
 20 21  2  0  0  0  0
 20 33  1  0  0  0  0
 21 22  1  0  0  0  0
 21 34  1  0  0  0  0
 22 23  2  0  0  0  0
 22 35  1  0  0  0  0
 23 24  1  0  0  0  0
 23 36  1  0  0  0  0
M  END
>  <Energy>
39.1731

$$$$

 OpenBabel04232614443D

 32 33  0  0  0  0  0  0  0  0999 V2000
    0.8639    0.3395    0.0113 C   0  0  0  0  0  0  0  0  0  0  0  0
    2.3437    0.2139    0.0495 C   0  0  0  0  0  0  0  0  0  0  0  0
    3.2492    1.1936   -0.0456 C   0  0  0  0  0  0  0  0  0  0  0  0
    4.5994    0.8392    0.0737 N   0  0  0  0  0  0  0  0  0  0  0  0
    5.5526    1.8788    0.2765 C   0  0  0  0  0  0  0  0  0  0  0  0
    5.5137    3.0632   -0.4865 C   0  0  0  0  0  0  0  0  0  0  0  0
    6.4169    4.1085   -0.2669 C   0  0  0  0  0  0  0  0  0  0  0  0
    7.4158    3.9740    0.6922 C   0  0  0  0  0  0  0  0  0  0  0  0
    7.4850    2.8136    1.4693 C   0  0  0  0  0  0  0  0  0  0  0  0
    8.6203    2.5848    2.4342 C   0  0  0  0  0  0  0  0  0  0  0  0
    9.2319    3.7310    2.8399 F   0  0  0  0  0  0  0  0  0  0  0  0
    8.2192    1.9512    3.5730 F   0  0  0  0  0  0  0  0  0  0  0  0
    9.6010    1.8007    1.9068 F   0  0  0  0  0  0  0  0  0  0  0  0
    6.5138    1.8104    1.2891 C   0  0  0  0  0  0  0  0  0  0  0  0
    4.7934   -0.5448    0.2433 C   0  0  0  0  0  0  0  0  0  0  0  0
    5.6696   -1.4694    0.3294 N   0  0  0  0  0  0  0  0  0  0  0  0
    7.2477   -1.4309    0.1334 S   0  0  0  0  0  0  0  0  0  0  0  0
    7.7872   -1.6880    1.8134 C   0  0  0  0  0  0  0  0  0  0  0  0
    7.6417   -2.6164   -0.6010 O   0  0  0  0  0  0  0  0  0  0  0  0
    7.7188   -0.1363   -0.3084 O   0  0  0  0  0  0  0  0  0  0  0  0
    3.1211   -1.3116    0.3267 S   0  0  0  0  0  0  0  0  0  0  0  0
    0.5536    1.3883   -0.0377 H   0  0  0  0  0  0  0  0  0  0  0  0
    0.4152   -0.0968    0.9101 H   0  0  0  0  0  0  0  0  0  0  0  0
    0.4549   -0.1745   -0.8644 H   0  0  0  0  0  0  0  0  0  0  0  0
    2.9890    2.2396   -0.1544 H   0  0  0  0  0  0  0  0  0  0  0  0
    4.7810    3.1836   -1.2819 H   0  0  0  0  0  0  0  0  0  0  0  0
    6.3556    5.0147   -0.8655 H   0  0  0  0  0  0  0  0  0  0  0  0
    8.1452    4.7720    0.8237 H   0  0  0  0  0  0  0  0  0  0  0  0
    6.5311    0.9510    1.9481 H   0  0  0  0  0  0  0  0  0  0  0  0
    7.3389   -2.6112    2.1884 H   0  0  0  0  0  0  0  0  0  0  0  0
    7.4845   -0.8509    2.4396 H   0  0  0  0  0  0  0  0  0  0  0  0
    8.8751   -1.7759    1.8201 H   0  0  0  0  0  0  0  0  0  0  0  0
  1  2  1  0  0  0  0
  1 22  1  0  0  0  0
  1 23  1  0  0  0  0
  1 24  1  0  0  0  0
  2  3  2  0  0  0  0
  2 21  1  0  0  0  0
  3  4  1  0  0  0  0
  3 25  1  0  0  0  0
  4  5  1  0  0  0  0
  4 15  1  0  0  0  0
  5  6  1  0  0  0  0
  5 14  2  0  0  0  0
  6  7  2  0  0  0  0
  6 26  1  0  0  0  0
  7  8  1  0  0  0  0
  7 27  1  0  0  0  0
  8  9  2  0  0  0  0
  8 28  1  0  0  0  0
  9 10  1  0  0  0  0
  9 14  1  0  0  0  0
 10 11  1  0  0  0  0
 10 12  1  0  0  0  0
 10 13  1  0  0  0  0
 14 29  1  0  0  0  0
 15 16  2  0  0  0  0
 15 21  1  0  0  0  0
 16 17  1  0  0  0  0
 17 18  1  0  0  0  0
 17 19  2  0  0  0  0
 17 20  2  0  0  0  0
 18 30  1  0  0  0  0
 18 31  1  0  0  0  0
 18 32  1  0  0  0  0
M  END
>  <Energy>
29.5074

$$$$

 OpenBabel04232614443D

 43 45  0  0  0  0  0  0  0  0999 V2000
    2.2695    1.5290   -1.2674 C   0  0  0  0  0  0  0  0  0  0  0  0
    2.7852    0.2240   -0.1303 S   0  0  0  0  0  0  0  0  0  0  0  0
    3.2226    1.1798    1.3301 C   0  0  0  0  0  0  0  0  0  0  0  0
    3.0243    2.5236    1.2658 N   0  0  0  0  0  0  0  0  0  0  0  0
    3.2885    3.2902    2.3501 C   0  0  0  0  0  0  0  0  0  0  0  0
    3.1095    4.6622    2.2577 N   0  0  0  0  0  0  0  0  0  0  0  0
    3.1067    5.3061    0.9302 C   0  0  0  0  0  0  0  0  0  0  0  0
    3.4227    6.8074    1.1485 C   0  0  0  0  0  0  0  0  0  0  0  0
    2.5237    7.4362    2.0883 O   0  0  0  0  0  0  0  0  0  0  0  0
    2.4931    6.7193    3.3379 C   0  0  0  0  0  0  0  0  0  0  0  0
    2.0562    5.2666    3.0955 C   0  0  0  0  0  0  0  0  0  0  0  0
    3.8188    2.7266    3.5268 C   0  0  0  0  0  0  0  0  0  0  0  0
    4.0749    1.3381    3.5686 C   0  0  0  0  0  0  0  0  0  0  0  0
    3.7356    0.5431    2.4627 C   0  0  0  0  0  0  0  0  0  0  0  0
    3.9190   -0.8831    2.5063 C   0  0  0  0  0  0  0  0  0  0  0  0
    4.0868   -2.0241    2.5957 N   0  0  0  0  0  0  0  0  0  0  0  0
    4.6655    0.7309    4.8257 C   0  0  0  0  0  0  0  0  0  0  0  0
    5.3966    1.7597    5.7083 C   0  0  0  0  0  0  0  0  0  0  0  0
    6.7566    2.1863    5.1345 C   0  0  0  0  0  0  0  0  0  0  0  0
    5.6138    1.1749    7.1082 C   0  0  0  0  0  0  0  0  0  0  0  0
    4.5387    2.8851    5.8911 O   0  0  0  0  0  0  0  0  0  0  0  0
    4.2554    3.5978    4.6866 C   0  0  0  0  0  0  0  0  0  0  0  0
    1.9215    1.0668   -2.1957 H   0  0  0  0  0  0  0  0  0  0  0  0
    3.1107    2.1855   -1.5043 H   0  0  0  0  0  0  0  0  0  0  0  0
    1.4458    2.1107   -0.8464 H   0  0  0  0  0  0  0  0  0  0  0  0
    2.1160    5.2049    0.4667 H   0  0  0  0  0  0  0  0  0  0  0  0
    3.8535    4.8748    0.2552 H   0  0  0  0  0  0  0  0  0  0  0  0
    3.3388    7.3538    0.2043 H   0  0  0  0  0  0  0  0  0  0  0  0
    4.4477    6.9320    1.5187 H   0  0  0  0  0  0  0  0  0  0  0  0
    1.7920    7.2247    4.0071 H   0  0  0  0  0  0  0  0  0  0  0  0
    3.4903    6.7630    3.7971 H   0  0  0  0  0  0  0  0  0  0  0  0
    1.0995    5.2469    2.5590 H   0  0  0  0  0  0  0  0  0  0  0  0
    1.8817    4.7490    4.0396 H   0  0  0  0  0  0  0  0  0  0  0  0
    5.3586   -0.0829    4.5839 H   0  0  0  0  0  0  0  0  0  0  0  0
    3.8200    0.3019    5.3816 H   0  0  0  0  0  0  0  0  0  0  0  0
    7.4616    1.3505    5.1074 H   0  0  0  0  0  0  0  0  0  0  0  0
    7.1875    2.9926    5.7396 H   0  0  0  0  0  0  0  0  0  0  0  0
    6.6758    2.5784    4.1151 H   0  0  0  0  0  0  0  0  0  0  0  0
    6.2744    0.3029    7.0854 H   0  0  0  0  0  0  0  0  0  0  0  0
    4.6607    0.8785    7.5619 H   0  0  0  0  0  0  0  0  0  0  0  0
    6.0480    1.9272    7.7770 H   0  0  0  0  0  0  0  0  0  0  0  0
    5.1269    4.1974    4.4035 H   0  0  0  0  0  0  0  0  0  0  0  0
    3.4798    4.2944    4.9896 H   0  0  0  0  0  0  0  0  0  0  0  0
  1  2  1  0  0  0  0
  1 23  1  0  0  0  0
  1 24  1  0  0  0  0
  1 25  1  0  0  0  0
  2  3  1  0  0  0  0
  3  4  1  0  0  0  0
  3 14  2  0  0  0  0
  4  5  2  0  0  0  0
  5  6  1  0  0  0  0
  5 12  1  0  0  0  0
  6  7  1  0  0  0  0
  6 11  1  0  0  0  0
  7  8  1  0  0  0  0
  7 26  1  0  0  0  0
  7 27  1  0  0  0  0
  8  9  1  0  0  0  0
  8 28  1  0  0  0  0
  8 29  1  0  0  0  0
  9 10  1  0  0  0  0
 10 11  1  0  0  0  0
 10 30  1  0  0  0  0
 10 31  1  0  0  0  0
 11 32  1  0  0  0  0
 11 33  1  0  0  0  0
 12 13  2  0  0  0  0
 12 22  1  0  0  0  0
 13 14  1  0  0  0  0
 13 17  1  0  0  0  0
 14 15  1  0  0  0  0
 15 16  3  0  0  0  0
 17 18  1  0  0  0  0
 17 34  1  0  0  0  0
 17 35  1  0  0  0  0
 18 19  1  0  0  0  0
 18 20  1  0  0  0  0
 18 21  1  0  0  0  0
 19 36  1  0  0  0  0
 19 37  1  0  0  0  0
 19 38  1  0  0  0  0
 20 39  1  0  0  0  0
 20 40  1  0  0  0  0
 20 41  1  0  0  0  0
 21 22  1  0  0  0  0
 22 42  1  0  0  0  0
 22 43  1  0  0  0  0
M  END
>  <Energy>
81.6582

$$$$

 OpenBabel04232614443D

 36 38  0  0  0  0  0  0  0  0999 V2000
    6.9633   -0.5191    4.8311 C   0  0  0  0  0  0  0  0  0  0  0  0
    6.3664   -0.8251    3.5699 O   0  0  0  0  0  0  0  0  0  0  0  0
    7.2215   -0.7472    2.5254 C   0  0  0  0  0  0  0  0  0  0  0  0
    8.4238   -0.5421    2.5918 O   0  0  0  0  0  0  0  0  0  0  0  0
    6.5306   -1.0307    1.2480 C   0  0  0  0  0  0  0  0  0  0  0  0
    7.2450   -1.8085    0.3134 C   0  0  0  0  0  0  0  0  0  0  0  0
    6.7460   -2.0453   -0.9763 C   0  0  0  0  0  0  0  0  0  0  0  0
    7.5039   -2.7655   -1.9364 N   0  0  0  0  0  0  0  0  0  0  0  0
    8.4640   -3.7040   -1.6463 C   0  0  0  0  0  0  0  0  0  0  0  0
    8.8276   -4.1602   -0.5761 O   0  0  0  0  0  0  0  0  0  0  0  0
    9.0118   -4.1624   -2.9254 C   0  0  0  0  0  0  0  0  0  0  0  0
    8.4159   -3.4772   -3.9002 C   0  0  0  0  0  0  0  0  0  0  0  0
    8.7326   -3.5940   -5.3421 C   0  0  0  0  0  0  0  0  0  0  0  0
    9.5754   -4.8505   -5.6186 C   0  0  0  0  0  0  0  0  0  0  0  0
   10.6539   -5.0913   -4.5489 C   0  0  0  0  0  0  0  0  0  0  0  0
   10.0769   -5.1727   -3.1245 C   0  0  0  0  0  0  0  0  0  0  0  0
    7.4079   -2.6035   -3.2957 C   0  0  0  0  0  0  0  0  0  0  0  0
    6.6968   -1.8699   -3.9599 O   0  0  0  0  0  0  0  0  0  0  0  0
    5.4905   -1.5141   -1.2982 C   0  0  0  0  0  0  0  0  0  0  0  0
    4.7618   -0.7648   -0.3679 C   0  0  0  0  0  0  0  0  0  0  0  0
    5.2838   -0.5020    0.9009 C   0  0  0  0  0  0  0  0  0  0  0  0
    4.3570    0.5399    1.9197 Cl  0  0  0  0  0  0  0  0  0  0  0  0
    6.1658   -0.4565    5.5771 H   0  0  0  0  0  0  0  0  0  0  0  0
    7.4779    0.4464    4.7990 H   0  0  0  0  0  0  0  0  0  0  0  0
    7.6538   -1.3165    5.1227 H   0  0  0  0  0  0  0  0  0  0  0  0
    8.2312   -2.1726    0.6011 H   0  0  0  0  0  0  0  0  0  0  0  0
    9.2941   -2.7044   -5.6516 H   0  0  0  0  0  0  0  0  0  0  0  0
    7.8178   -3.6286   -5.9435 H   0  0  0  0  0  0  0  0  0  0  0  0
   10.0463   -4.7617   -6.6045 H   0  0  0  0  0  0  0  0  0  0  0  0
    8.9143   -5.7253   -5.6611 H   0  0  0  0  0  0  0  0  0  0  0  0
   11.3866   -4.2754   -4.5939 H   0  0  0  0  0  0  0  0  0  0  0  0
   11.1973   -6.0162   -4.7746 H   0  0  0  0  0  0  0  0  0  0  0  0
   10.8854   -5.0377   -2.3977 H   0  0  0  0  0  0  0  0  0  0  0  0
    9.6523   -6.1702   -2.9604 H   0  0  0  0  0  0  0  0  0  0  0  0
    5.0382   -1.6834   -2.2736 H   0  0  0  0  0  0  0  0  0  0  0  0
    3.7901   -0.3676   -0.6562 H   0  0  0  0  0  0  0  0  0  0  0  0
  1  2  1  0  0  0  0
  1 23  1  0  0  0  0
  1 24  1  0  0  0  0
  1 25  1  0  0  0  0
  2  3  1  0  0  0  0
  3  4  2  0  0  0  0
  3  5  1  0  0  0  0
  5  6  1  0  0  0  0
  5 21  2  0  0  0  0
  6  7  2  0  0  0  0
  6 26  1  0  0  0  0
  7  8  1  0  0  0  0
  7 19  1  0  0  0  0
  8  9  1  0  0  0  0
  8 17  1  0  0  0  0
  9 10  2  0  0  0  0
  9 11  1  0  0  0  0
 11 12  2  0  0  0  0
 11 16  1  0  0  0  0
 12 13  1  0  0  0  0
 12 17  1  0  0  0  0
 13 14  1  0  0  0  0
 13 27  1  0  0  0  0
 13 28  1  0  0  0  0
 14 15  1  0  0  0  0
 14 29  1  0  0  0  0
 14 30  1  0  0  0  0
 15 16  1  0  0  0  0
 15 31  1  0  0  0  0
 15 32  1  0  0  0  0
 16 33  1  0  0  0  0
 16 34  1  0  0  0  0
 17 18  2  0  0  0  0
 19 20  2  0  0  0  0
 19 35  1  0  0  0  0
 20 21  1  0  0  0  0
 20 36  1  0  0  0  0
 21 22  1  0  0  0  0
M  END
>  <Energy>
-0.815854

$$$$

 OpenBabel04232614443D

 52 53  0  0  1  0  0  0  0  0999 V2000
    1.6135    1.1354    0.3239 C   0  0  0  0  0  0  0  0  0  0  0  0
    2.0328    2.4384    0.7047 O   0  0  0  0  0  0  0  0  0  0  0  0
    3.2733    2.4906    1.4032 C   0  0  3  0  0  0  0  0  0  0  0  0
    3.4091    3.8588    2.1235 C   0  0  0  0  0  0  0  0  0  0  0  0
    3.6155    5.2290    1.4339 C   0  0  0  0  0  0  0  0  0  0  0  0
    2.7007    5.7444    0.3934 N   0  0  0  0  0  0  0  0  0  0  0  0
    2.4826    7.1385    0.3465 C   0  0  0  0  0  0  0  0  0  0  0  0
    3.0640    7.9104    1.1017 O   0  0  0  0  0  0  0  0  0  0  0  0
    1.4775    7.6418   -0.7053 C   0  0  0  0  0  0  0  0  0  0  0  0
    1.0359    9.1295   -0.6827 C   0  0  0  0  0  0  0  0  0  0  0  0
    2.2036   10.0730   -1.0179 C   0  0  0  0  0  0  0  0  0  0  0  0
   -0.0406    9.3121   -1.7814 C   0  0  0  0  0  0  0  0  0  0  0  0
    0.4075    9.5240    0.6599 C   0  0  0  0  0  0  0  0  0  0  0  0
    2.2546    4.8630   -0.7007 C   0  0  0  0  0  0  0  0  0  0  0  0
    3.2205    3.8396   -1.3103 C   0  0  0  0  0  0  0  0  0  0  0  0
    2.8440    3.0183   -2.1498 O   0  0  0  0  0  0  0  0  0  0  0  0
    4.5523    3.9522   -0.9116 N   0  0  0  0  0  0  0  0  0  0  0  0
    5.3412    4.9480   -1.6104 C   0  0  0  0  0  0  0  0  0  0  0  0
    5.1695    2.7894   -0.3631 C   0  0  0  0  0  0  0  0  0  0  0  0
    6.4534    2.3938   -0.7752 C   0  0  0  0  0  0  0  0  0  0  0  0
    7.0042    1.1813   -0.3547 C   0  0  0  0  0  0  0  0  0  0  0  0
    6.2788    0.3447    0.4808 C   0  0  0  0  0  0  0  0  0  0  0  0
    5.0453    0.7668    0.9716 C   0  0  0  0  0  0  0  0  0  0  0  0
    4.4988    2.0213    0.6141 C   0  0  0  0  0  0  0  0  0  0  0  0
    2.3264    0.6707   -0.3621 H   0  0  0  0  0  0  0  0  0  0  0  0
    0.6565    1.2314   -0.1970 H   0  0  0  0  0  0  0  0  0  0  0  0
    1.4644    0.5067    1.2064 H   0  0  0  0  0  0  0  0  0  0  0  0
    3.1596    1.7870    2.2417 H   0  0  0  0  0  0  0  0  0  0  0  0
    4.2643    3.7566    2.8095 H   0  0  0  0  0  0  0  0  0  0  0  0
    2.5222    3.9689    2.7601 H   0  0  0  0  0  0  0  0  0  0  0  0
    4.6380    5.3265    1.0616 H   0  0  0  0  0  0  0  0  0  0  0  0
    3.5876    5.9522    2.2561 H   0  0  0  0  0  0  0  0  0  0  0  0
    0.5802    7.0191   -0.6135 H   0  0  0  0  0  0  0  0  0  0  0  0
    1.9287    7.4597   -1.6894 H   0  0  0  0  0  0  0  0  0  0  0  0
    2.6450    9.8264   -1.9898 H   0  0  0  0  0  0  0  0  0  0  0  0
    2.9977   10.0272   -0.2672 H   0  0  0  0  0  0  0  0  0  0  0  0
    1.8638   11.1148   -1.0674 H   0  0  0  0  0  0  0  0  0  0  0  0
    0.3545    9.0570   -2.7712 H   0  0  0  0  0  0  0  0  0  0  0  0
   -0.3964   10.3485   -1.8239 H   0  0  0  0  0  0  0  0  0  0  0  0
   -0.9101    8.6714   -1.5949 H   0  0  0  0  0  0  0  0  0  0  0  0
    1.1333    9.4916    1.4796 H   0  0  0  0  0  0  0  0  0  0  0  0
   -0.4235    8.8573    0.9189 H   0  0  0  0  0  0  0  0  0  0  0  0
    0.0114   10.5454    0.6234 H   0  0  0  0  0  0  0  0  0  0  0  0
    1.9194    5.4461   -1.5590 H   0  0  0  0  0  0  0  0  0  0  0  0
    1.3628    4.3506   -0.3313 H   0  0  0  0  0  0  0  0  0  0  0  0
    4.7161    5.8136   -1.8546 H   0  0  0  0  0  0  0  0  0  0  0  0
    5.7213    4.5354   -2.5489 H   0  0  0  0  0  0  0  0  0  0  0  0
    6.1622    5.2828   -0.9691 H   0  0  0  0  0  0  0  0  0  0  0  0
    7.0362    2.9921   -1.4689 H   0  0  0  0  0  0  0  0  0  0  0  0
    7.9881    0.8801   -0.7055 H   0  0  0  0  0  0  0  0  0  0  0  0
    6.6821   -0.6224    0.7718 H   0  0  0  0  0  0  0  0  0  0  0  0
    4.5146    0.1104    1.6598 H   0  0  0  0  0  0  0  0  0  0  0  0
  1  2  1  0  0  0  0
  1 25  1  0  0  0  0
  1 26  1  0  0  0  0
  1 27  1  0  0  0  0
  2  3  1  0  0  0  0
  3  4  1  0  0  0  0
  3 24  1  0  0  0  0
  3 28  1  0  0  0  0
  4  5  1  0  0  0  0
  4 29  1  0  0  0  0
  4 30  1  0  0  0  0
  5  6  1  0  0  0  0
  5 31  1  0  0  0  0
  5 32  1  0  0  0  0
  6  7  1  0  0  0  0
  6 14  1  0  0  0  0
  7  8  2  0  0  0  0
  7  9  1  0  0  0  0
  9 10  1  0  0  0  0
  9 33  1  0  0  0  0
  9 34  1  0  0  0  0
 10 11  1  0  0  0  0
 10 12  1  0  0  0  0
 10 13  1  0  0  0  0
 11 35  1  0  0  0  0
 11 36  1  0  0  0  0
 11 37  1  0  0  0  0
 12 38  1  0  0  0  0
 12 39  1  0  0  0  0
 12 40  1  0  0  0  0
 13 41  1  0  0  0  0
 13 42  1  0  0  0  0
 13 43  1  0  0  0  0
 14 15  1  0  0  0  0
 14 44  1  0  0  0  0
 14 45  1  0  0  0  0
 15 16  2  0  0  0  0
 15 17  1  0  0  0  0
 17 18  1  0  0  0  0
 17 19  1  0  0  0  0
 18 46  1  0  0  0  0
 18 47  1  0  0  0  0
 18 48  1  0  0  0  0
 19 20  1  0  0  0  0
 19 24  2  0  0  0  0
 20 21  2  0  0  0  0
 20 49  1  0  0  0  0
 21 22  1  0  0  0  0
 21 50  1  0  0  0  0
 22 23  2  0  0  0  0
 22 51  1  0  0  0  0
 23 24  1  0  0  0  0
 23 52  1  0  0  0  0
M  END
>  <Energy>
101.571

$$$$

 OpenBabel04232614443D

 39 42  0  0  0  0  0  0  0  0999 V2000
   -1.2969    1.8050   -2.4046 C   0  0  0  0  0  0  0  0  0  0  0  0
   -0.9096    0.6082   -1.7059 N   0  0  0  0  0  0  0  0  0  0  0  0
   -1.7867   -0.3501   -1.2119 C   0  0  0  0  0  0  0  0  0  0  0  0
   -2.9981   -0.3803   -1.2629 O   0  0  0  0  0  0  0  0  0  0  0  0
   -0.8899   -1.4155   -0.5664 C   0  0  0  0  0  0  0  0  0  0  0  0
   -1.2002   -2.5200    0.0306 N   0  0  0  0  0  0  0  0  0  0  0  0
   -2.5915   -2.7064    0.1551 O   0  0  0  0  0  0  0  0  0  0  0  0
   -2.8805   -4.0428    0.0316 C   0  0  0  0  0  0  0  0  0  0  0  0
   -2.1833   -4.8765   -0.5298 O   0  0  0  0  0  0  0  0  0  0  0  0
   -4.1710   -4.3601    0.7209 C   0  0  0  0  0  0  0  0  0  0  0  0
   -5.1834   -3.3851    0.7382 C   0  0  0  0  0  0  0  0  0  0  0  0
   -6.4036   -3.6467    1.3555 C   0  0  0  0  0  0  0  0  0  0  0  0
   -6.6303   -4.8836    1.9544 C   0  0  0  0  0  0  0  0  0  0  0  0
   -5.6460   -5.8789    1.9515 C   0  0  0  0  0  0  0  0  0  0  0  0
   -5.9145   -7.1184    2.5634 C   0  0  0  0  0  0  0  0  0  0  0  0
   -4.9625   -8.1340    2.5853 C   0  0  0  0  0  0  0  0  0  0  0  0
   -3.7228   -7.9195    2.0048 C   0  0  0  0  0  0  0  0  0  0  0  0
   -3.4387   -6.6914    1.3987 C   0  0  0  0  0  0  0  0  0  0  0  0
   -4.3870   -5.6374    1.3367 C   0  0  0  0  0  0  0  0  0  0  0  0
    0.4833   -0.9535   -0.7515 C   0  0  0  0  0  0  0  0  0  0  0  0
    1.6746   -1.5238   -0.3453 C   0  0  0  0  0  0  0  0  0  0  0  0
    2.8488   -0.8297   -0.6445 C   0  0  0  0  0  0  0  0  0  0  0  0
    2.8015    0.3970   -1.3345 C   0  0  0  0  0  0  0  0  0  0  0  0
    1.5796    0.9532   -1.7361 C   0  0  0  0  0  0  0  0  0  0  0  0
    0.4218    0.2600   -1.4307 C   0  0  0  0  0  0  0  0  0  0  0  0
   -2.3826    1.8449   -2.5252 H   0  0  0  0  0  0  0  0  0  0  0  0
   -0.8283    1.8164   -3.3937 H   0  0  0  0  0  0  0  0  0  0  0  0
   -0.9692    2.6787   -1.8329 H   0  0  0  0  0  0  0  0  0  0  0  0
   -5.0362   -2.4173    0.2626 H   0  0  0  0  0  0  0  0  0  0  0  0
   -7.1838   -2.8893    1.3662 H   0  0  0  0  0  0  0  0  0  0  0  0
   -7.5943   -5.0653    2.4273 H   0  0  0  0  0  0  0  0  0  0  0  0
   -6.8799   -7.3043    3.0307 H   0  0  0  0  0  0  0  0  0  0  0  0
   -5.1891   -9.0875    3.0550 H   0  0  0  0  0  0  0  0  0  0  0  0
   -2.9693   -8.7032    2.0159 H   0  0  0  0  0  0  0  0  0  0  0  0
   -2.4464   -6.5776    0.9677 H   0  0  0  0  0  0  0  0  0  0  0  0
    1.6930   -2.4687    0.1877 H   0  0  0  0  0  0  0  0  0  0  0  0
    3.8103   -1.2391   -0.3402 H   0  0  0  0  0  0  0  0  0  0  0  0
    3.7305    0.9202   -1.5558 H   0  0  0  0  0  0  0  0  0  0  0  0
    1.5615    1.9004   -2.2638 H   0  0  0  0  0  0  0  0  0  0  0  0
  1  2  1  0  0  0  0
  1 26  1  0  0  0  0
  1 27  1  0  0  0  0
  1 28  1  0  0  0  0
  2  3  1  0  0  0  0
  2 25  1  0  0  0  0
  3  4  2  0  0  0  0
  3  5  1  0  0  0  0
  5  6  2  0  0  0  0
  5 20  1  0  0  0  0
  6  7  1  0  0  0  0
  7  8  1  0  0  0  0
  8  9  2  0  0  0  0
  8 10  1  0  0  0  0
 10 11  1  0  0  0  0
 10 19  2  0  0  0  0
 11 12  2  0  0  0  0
 11 29  1  0  0  0  0
 12 13  1  0  0  0  0
 12 30  1  0  0  0  0
 13 14  2  0  0  0  0
 13 31  1  0  0  0  0
 14 15  1  0  0  0  0
 14 19  1  0  0  0  0
 15 16  2  0  0  0  0
 15 32  1  0  0  0  0
 16 17  1  0  0  0  0
 16 33  1  0  0  0  0
 17 18  2  0  0  0  0
 17 34  1  0  0  0  0
 18 19  1  0  0  0  0
 18 35  1  0  0  0  0
 20 21  1  0  0  0  0
 20 25  2  0  0  0  0
 21 22  2  0  0  0  0
 21 36  1  0  0  0  0
 22 23  1  0  0  0  0
 22 37  1  0  0  0  0
 23 24  2  0  0  0  0
 23 38  1  0  0  0  0
 24 25  1  0  0  0  0
 24 39  1  0  0  0  0
M  END
>  <Energy>
148.484

$$$$

 OpenBabel04232614443D

 49 52  0  0  0  0  0  0  0  0999 V2000
   -2.9918    0.2395   -0.2126 N   0  0  0  0  0  0  0  0  0  0  0  0
   -1.8332    0.1845   -0.1471 C   0  0  0  0  0  0  0  0  0  0  0  0
   -0.4091    0.1190   -0.0663 C   0  0  0  0  0  0  0  0  0  0  0  0
    0.2235    0.0588    1.1698 C   0  0  0  0  0  0  0  0  0  0  0  0
    1.6193    0.0049    1.2370 C   0  0  0  0  0  0  0  0  0  0  0  0
    2.4271    0.0092    0.0873 C   0  0  0  0  0  0  0  0  0  0  0  0
    3.8062   -0.0600    0.1719 N   0  0  0  0  0  0  0  0  0  0  0  0
    4.6211   -0.6264   -0.9069 C   0  0  0  0  0  0  0  0  0  0  0  0
    5.5954   -1.6539   -0.3329 C   0  0  0  0  0  0  0  0  0  0  0  0
    6.3890   -1.0719    0.8324 C   0  0  0  0  0  0  0  0  0  0  0  0
    5.4615   -0.5074    1.9407 C   0  0  0  0  0  0  0  0  0  0  0  0
    6.3137    0.1329    3.0645 C   0  0  0  0  0  0  0  0  0  0  0  0
    7.1175   -0.9109    3.8502 C   0  0  0  0  0  0  0  0  0  0  0  0
    6.2317   -1.9831    4.3151 N   0  0  0  0  0  0  0  0  0  0  0  0
    6.2595   -2.4387    5.6191 C   0  0  0  0  0  0  0  0  0  0  0  0
    5.9878   -3.7707    5.9545 C   0  0  0  0  0  0  0  0  0  0  0  0
    5.9930   -4.1991    7.2819 C   0  0  0  0  0  0  0  0  0  0  0  0
    6.2762   -3.2738    8.2662 C   0  0  0  0  0  0  0  0  0  0  0  0
    6.5416   -1.9791    8.0153 N   0  0  0  0  0  0  0  0  0  0  0  0
    6.5220   -1.6041    6.7110 C   0  0  0  0  0  0  0  0  0  0  0  0
    5.4128   -2.6552    3.3098 C   0  0  0  0  0  0  0  0  0  0  0  0
    4.5821   -1.6018    2.5940 C   0  0  0  0  0  0  0  0  0  0  0  0
    4.5433    0.5512    1.2895 C   0  0  0  0  0  0  0  0  0  0  0  0
    1.7582    0.0607   -1.1451 C   0  0  0  0  0  0  0  0  0  0  0  0
    0.3618    0.1152   -1.2295 C   0  0  0  0  0  0  0  0  0  0  0  0
   -0.3549    0.0473    2.0914 H   0  0  0  0  0  0  0  0  0  0  0  0
    2.0626   -0.0785    2.2250 H   0  0  0  0  0  0  0  0  0  0  0  0
    5.1716    0.1762   -1.4106 H   0  0  0  0  0  0  0  0  0  0  0  0
    4.0246   -1.1452   -1.6644 H   0  0  0  0  0  0  0  0  0  0  0  0
    6.2822   -1.9948   -1.1151 H   0  0  0  0  0  0  0  0  0  0  0  0
    5.0444   -2.5417    0.0010 H   0  0  0  0  0  0  0  0  0  0  0  0
    7.0297   -0.2647    0.4523 H   0  0  0  0  0  0  0  0  0  0  0  0
    7.0679   -1.8397    1.2143 H   0  0  0  0  0  0  0  0  0  0  0  0
    5.6548    0.6631    3.7660 H   0  0  0  0  0  0  0  0  0  0  0  0
    6.9968    0.8849    2.6508 H   0  0  0  0  0  0  0  0  0  0  0  0
    7.6451   -0.4043    4.6643 H   0  0  0  0  0  0  0  0  0  0  0  0
    7.9056   -1.3419    3.2208 H   0  0  0  0  0  0  0  0  0  0  0  0
    5.7877   -4.5111    5.1861 H   0  0  0  0  0  0  0  0  0  0  0  0
    5.7861   -5.2329    7.5311 H   0  0  0  0  0  0  0  0  0  0  0  0
    6.2988   -3.5578    9.3137 H   0  0  0  0  0  0  0  0  0  0  0  0
    6.6956   -0.5415    6.5699 H   0  0  0  0  0  0  0  0  0  0  0  0
    4.7021   -3.3670    3.7434 H   0  0  0  0  0  0  0  0  0  0  0  0
    6.0424   -3.2201    2.6138 H   0  0  0  0  0  0  0  0  0  0  0  0
    3.9180   -1.1297    3.3330 H   0  0  0  0  0  0  0  0  0  0  0  0
    3.9255   -2.0957    1.8715 H   0  0  0  0  0  0  0  0  0  0  0  0
    5.1447    1.3820    0.8965 H   0  0  0  0  0  0  0  0  0  0  0  0
    3.8881    1.0048    2.0420 H   0  0  0  0  0  0  0  0  0  0  0  0
    2.3164    0.0894   -2.0769 H   0  0  0  0  0  0  0  0  0  0  0  0
   -0.1115    0.1619   -2.2081 H   0  0  0  0  0  0  0  0  0  0  0  0
  1  2  3  0  0  0  0
  2  3  1  0  0  0  0
  3  4  1  0  0  0  0
  3 25  2  0  0  0  0
  4  5  2  0  0  0  0
  4 26  1  0  0  0  0
  5  6  1  0  0  0  0
  5 27  1  0  0  0  0
  6  7  1  0  0  0  0
  6 24  2  0  0  0  0
  7  8  1  0  0  0  0
  7 23  1  0  0  0  0
  8  9  1  0  0  0  0
  8 28  1  0  0  0  0
  8 29  1  0  0  0  0
  9 10  1  0  0  0  0
  9 30  1  0  0  0  0
  9 31  1  0  0  0  0
 10 11  1  0  0  0  0
 10 32  1  0  0  0  0
 10 33  1  0  0  0  0
 11 12  1  0  0  0  0
 11 22  1  0  0  0  0
 11 23  1  0  0  0  0
 12 13  1  0  0  0  0
 12 34  1  0  0  0  0
 12 35  1  0  0  0  0
 13 14  1  0  0  0  0
 13 36  1  0  0  0  0
 13 37  1  0  0  0  0
 14 15  1  0  0  0  0
 14 21  1  0  0  0  0
 15 16  1  0  0  0  0
 15 20  2  0  0  0  0
 16 17  2  0  0  0  0
 16 38  1  0  0  0  0
 17 18  1  0  0  0  0
 17 39  1  0  0  0  0
 18 19  2  0  0  0  0
 18 40  1  0  0  0  0
 19 20  1  0  0  0  0
 20 41  1  0  0  0  0
 21 22  1  0  0  0  0
 21 42  1  0  0  0  0
 21 43  1  0  0  0  0
 22 44  1  0  0  0  0
 22 45  1  0  0  0  0
 23 46  1  0  0  0  0
 23 47  1  0  0  0  0
 24 25  1  0  0  0  0
 24 48  1  0  0  0  0
 25 49  1  0  0  0  0
M  END
>  <Energy>
87.4785

$$$$

 OpenBabel04232614443D

 41 44  0  0  0  0  0  0  0  0999 V2000
    1.8230    0.6086    0.2697 O   0  0  0  0  0  0  0  0  0  0  0  0
    2.7366   -0.0664   -0.2231 C   0  0  0  0  0  0  0  0  0  0  0  0
    2.5713   -1.6039   -0.2839 C   0  0  0  0  0  0  0  0  0  0  0  0
    2.1854   -2.1632    1.0120 N   0  0  0  0  0  0  0  0  0  0  0  0
    3.2011   -2.6485    1.8268 C   0  0  0  0  0  0  0  0  0  0  0  0
    4.3964   -2.6820    1.5483 O   0  0  0  0  0  0  0  0  0  0  0  0
    2.7834   -3.2041    3.1605 C   0  0  0  0  0  0  0  0  0  0  0  0
    1.5712   -3.1952    3.6096 N   0  0  0  0  0  0  0  0  0  0  0  0
    0.5856   -2.6161    2.7928 C   0  0  0  0  0  0  0  0  0  0  0  0
   -0.7104   -2.5339    3.3161 C   0  0  0  0  0  0  0  0  0  0  0  0
   -1.7445   -1.9606    2.5766 C   0  0  0  0  0  0  0  0  0  0  0  0
   -1.4916   -1.4836    1.2952 C   0  0  0  0  0  0  0  0  0  0  0  0
   -0.2064   -1.5708    0.7579 C   0  0  0  0  0  0  0  0  0  0  0  0
    0.8487   -2.1174    1.5006 C   0  0  0  0  0  0  0  0  0  0  0  0
    3.9162    0.4895   -0.7406 N   0  0  0  0  0  0  0  0  0  0  0  0
    4.6019   -0.1440   -1.8773 C   0  0  0  0  0  0  0  0  0  0  0  0
    6.0082    0.3554   -2.1600 C   0  0  0  0  0  0  0  0  0  0  0  0
    5.9955    1.8608   -2.2537 C   0  0  0  0  0  0  0  0  0  0  0  0
    5.4807    2.4030   -0.9523 C   0  0  0  0  0  0  0  0  0  0  0  0
    6.0899    3.5479   -0.4085 C   0  0  0  0  0  0  0  0  0  0  0  0
    5.6051    4.1186    0.7627 C   0  0  0  0  0  0  0  0  0  0  0  0
    4.4830    3.5760    1.3705 C   0  0  0  0  0  0  0  0  0  0  0  0
    3.8898    2.4207    0.8486 C   0  0  0  0  0  0  0  0  0  0  0  0
    4.3943    1.7857   -0.2986 C   0  0  0  0  0  0  0  0  0  0  0  0
    3.4961   -2.0971   -0.5691 H   0  0  0  0  0  0  0  0  0  0  0  0
    1.8371   -1.8618   -1.0519 H   0  0  0  0  0  0  0  0  0  0  0  0
    3.6023   -3.6424    3.7558 H   0  0  0  0  0  0  0  0  0  0  0  0
   -0.9062   -2.9085    4.3177 H   0  0  0  0  0  0  0  0  0  0  0  0
   -2.7398   -1.8801    3.0043 H   0  0  0  0  0  0  0  0  0  0  0  0
   -2.2906   -1.0232    0.7175 H   0  0  0  0  0  0  0  0  0  0  0  0
   -0.0575   -1.1591   -0.2380 H   0  0  0  0  0  0  0  0  0  0  0  0
    3.9588   -0.0031   -2.7547 H   0  0  0  0  0  0  0  0  0  0  0  0
    4.6850   -1.2211   -1.7279 H   0  0  0  0  0  0  0  0  0  0  0  0
    6.3807   -0.0820   -3.0930 H   0  0  0  0  0  0  0  0  0  0  0  0
    6.6842    0.0337   -1.3566 H   0  0  0  0  0  0  0  0  0  0  0  0
    7.0047    2.2266   -2.4689 H   0  0  0  0  0  0  0  0  0  0  0  0
    5.3398    2.1997   -3.0661 H   0  0  0  0  0  0  0  0  0  0  0  0
    6.9615    3.9873   -0.8882 H   0  0  0  0  0  0  0  0  0  0  0  0
    6.0976    4.9839    1.1966 H   0  0  0  0  0  0  0  0  0  0  0  0
    4.0743    4.0294    2.2700 H   0  0  0  0  0  0  0  0  0  0  0  0
    3.0406    2.0302    1.4001 H   0  0  0  0  0  0  0  0  0  0  0  0
  1  2  2  0  0  0  0
  2  3  1  0  0  0  0
  2 15  1  0  0  0  0
  3  4  1  0  0  0  0
  3 25  1  0  0  0  0
  3 26  1  0  0  0  0
  4  5  1  0  0  0  0
  4 14  1  0  0  0  0
  5  6  2  0  0  0  0
  5  7  1  0  0  0  0
  7  8  2  0  0  0  0
  7 27  1  0  0  0  0
  8  9  1  0  0  0  0
  9 10  1  0  0  0  0
  9 14  2  0  0  0  0
 10 11  2  0  0  0  0
 10 28  1  0  0  0  0
 11 12  1  0  0  0  0
 11 29  1  0  0  0  0
 12 13  2  0  0  0  0
 12 30  1  0  0  0  0
 13 14  1  0  0  0  0
 13 31  1  0  0  0  0
 15 16  1  0  0  0  0
 15 24  1  0  0  0  0
 16 17  1  0  0  0  0
 16 32  1  0  0  0  0
 16 33  1  0  0  0  0
 17 18  1  0  0  0  0
 17 34  1  0  0  0  0
 17 35  1  0  0  0  0
 18 19  1  0  0  0  0
 18 36  1  0  0  0  0
 18 37  1  0  0  0  0
 19 20  1  0  0  0  0
 19 24  2  0  0  0  0
 20 21  2  0  0  0  0
 20 38  1  0  0  0  0
 21 22  1  0  0  0  0
 21 39  1  0  0  0  0
 22 23  2  0  0  0  0
 22 40  1  0  0  0  0
 23 24  1  0  0  0  0
 23 41  1  0  0  0  0
M  END
>  <Energy>
101.647

$$$$

 OpenBabel04232614443D

 47 50  0  0  1  0  0  0  0  0999 V2000
    1.0711   -0.4740   -0.9394 C   0  0  0  0  0  0  0  0  0  0  0  0
    2.4802   -0.1835   -0.5881 C   0  0  0  0  0  0  0  0  0  0  0  0
    2.9980    0.9936   -0.0080 C   0  0  0  0  0  0  0  0  0  0  0  0
    4.3242    0.7230    0.2476 C   0  0  0  0  0  0  0  0  0  0  0  0
    5.3614    1.5527    0.9074 C   0  0  0  0  0  0  0  0  0  0  0  0
    4.5052   -0.5917   -0.1270 N   0  0  0  0  0  0  0  0  0  0  0  0
    5.5610   -1.4755    0.3656 C   0  0  3  0  0  0  0  0  0  0  0  0
    6.1229   -2.4825   -0.6622 C   0  0  0  0  0  0  0  0  0  0  0  0
    5.3462   -3.8001   -0.7472 C   0  0  0  0  0  0  0  0  0  0  0  0
    5.0271   -4.3533    0.6416 C   0  0  0  0  0  0  0  0  0  0  0  0
    4.2915   -3.3505    1.4108 N   0  0  0  0  0  0  0  0  0  0  0  0
    2.9196   -3.3242    1.7017 C   0  0  0  0  0  0  0  0  0  0  0  0
    2.4190   -2.4416    2.3999 O   0  0  0  0  0  0  0  0  0  0  0  0
    2.0052   -4.4218    1.2465 C   0  0  0  0  0  0  0  0  0  0  0  0
    0.9538   -4.8221    2.0980 C   0  0  0  0  0  0  0  0  0  0  0  0
    0.1262   -5.9044    1.7671 C   0  0  0  0  0  0  0  0  0  0  0  0
    0.3846   -6.5955    0.5951 C   0  0  0  0  0  0  0  0  0  0  0  0
    1.3756   -6.1737   -0.2676 C   0  0  0  0  0  0  0  0  0  0  0  0
    2.1396   -5.0558    0.0096 C   0  0  0  0  0  0  0  0  0  0  0  0
    1.4745   -7.0989   -1.4219 C   0  0  0  0  0  0  0  0  0  0  0  0
    0.4743   -8.1117   -1.1763 O   0  0  0  0  0  0  0  0  0  0  0  0
   -0.2665   -7.8036    0.0319 C   0  0  0  0  0  0  0  0  0  0  0  0
    5.0886   -2.1497    1.6683 C   0  0  0  0  0  0  0  0  0  0  0  0
    3.4334   -1.1075   -0.7633 N   0  0  0  0  0  0  0  0  0  0  0  0
    0.4401    0.4089   -0.7907 H   0  0  0  0  0  0  0  0  0  0  0  0
    0.6806   -1.2729   -0.2991 H   0  0  0  0  0  0  0  0  0  0  0  0
    0.9804   -0.7868   -1.9831 H   0  0  0  0  0  0  0  0  0  0  0  0
    2.4604    1.8953    0.2495 H   0  0  0  0  0  0  0  0  0  0  0  0
    4.9878    2.5615    1.1084 H   0  0  0  0  0  0  0  0  0  0  0  0
    6.2472    1.6428    0.2702 H   0  0  0  0  0  0  0  0  0  0  0  0
    5.6618    1.1125    1.8640 H   0  0  0  0  0  0  0  0  0  0  0  0
    6.3958   -0.8081    0.6128 H   0  0  0  0  0  0  0  0  0  0  0  0
    7.1484   -2.7340   -0.3616 H   0  0  0  0  0  0  0  0  0  0  0  0
    6.1939   -2.0305   -1.6592 H   0  0  0  0  0  0  0  0  0  0  0  0
    5.9244   -4.5385   -1.3149 H   0  0  0  0  0  0  0  0  0  0  0  0
    4.4336   -3.6135   -1.3208 H   0  0  0  0  0  0  0  0  0  0  0  0
    5.9644   -4.5569    1.1806 H   0  0  0  0  0  0  0  0  0  0  0  0
    4.5062   -5.3077    0.6013 H   0  0  0  0  0  0  0  0  0  0  0  0
    0.7833   -4.2853    3.0302 H   0  0  0  0  0  0  0  0  0  0  0  0
   -0.6803   -6.2036    2.4299 H   0  0  0  0  0  0  0  0  0  0  0  0
    2.8400   -4.7111   -0.7351 H   0  0  0  0  0  0  0  0  0  0  0  0
    2.4548   -7.5873   -1.4563 H   0  0  0  0  0  0  0  0  0  0  0  0
    1.2628   -6.6052   -2.3705 H   0  0  0  0  0  0  0  0  0  0  0  0
   -0.1932   -8.6615    0.7048 H   0  0  0  0  0  0  0  0  0  0  0  0
   -1.3070   -7.6170   -0.2457 H   0  0  0  0  0  0  0  0  0  0  0  0
    5.9627   -2.4687    2.2486 H   0  0  0  0  0  0  0  0  0  0  0  0
    4.5381   -1.4418    2.3015 H   0  0  0  0  0  0  0  0  0  0  0  0
  1  2  1  0  0  0  0
  1 25  1  0  0  0  0
  1 26  1  0  0  0  0
  1 27  1  0  0  0  0
  2  3  1  0  0  0  0
  2 24  2  0  0  0  0
  3  4  2  0  0  0  0
  3 28  1  0  0  0  0
  4  5  1  0  0  0  0
  4  6  1  0  0  0  0
  5 29  1  0  0  0  0
  5 30  1  0  0  0  0
  5 31  1  0  0  0  0
  6  7  1  0  0  0  0
  6 24  1  0  0  0  0
  7  8  1  0  0  0  0
  7 23  1  0  0  0  0
  7 32  1  0  0  0  0
  8  9  1  0  0  0  0
  8 33  1  0  0  0  0
  8 34  1  0  0  0  0
  9 10  1  0  0  0  0
  9 35  1  0  0  0  0
  9 36  1  0  0  0  0
 10 11  1  0  0  0  0
 10 37  1  0  0  0  0
 10 38  1  0  0  0  0
 11 12  1  0  0  0  0
 11 23  1  0  0  0  0
 12 13  2  0  0  0  0
 12 14  1  0  0  0  0
 14 15  1  0  0  0  0
 14 19  2  0  0  0  0
 15 16  2  0  0  0  0
 15 39  1  0  0  0  0
 16 17  1  0  0  0  0
 16 40  1  0  0  0  0
 17 18  2  0  0  0  0
 17 22  1  0  0  0  0
 18 19  1  0  0  0  0
 18 20  1  0  0  0  0
 19 41  1  0  0  0  0
 20 21  1  0  0  0  0
 20 42  1  0  0  0  0
 20 43  1  0  0  0  0
 21 22  1  0  0  0  0
 22 44  1  0  0  0  0
 22 45  1  0  0  0  0
 23 46  1  0  0  0  0
 23 47  1  0  0  0  0
M  END
>  <Energy>
70.6605

$$$$

 OpenBabel04232614443D

 37 40  0  0  0  0  0  0  0  0999 V2000
    1.0853    0.0153    0.0063 C   0  0  0  0  0  0  0  0  0  0  0  0
    2.5676   -0.0894   -0.0024 C   0  0  0  0  0  0  0  0  0  0  0  0
    3.3667    1.0064    0.2400 N   0  0  0  0  0  0  0  0  0  0  0  0
    4.6844    0.6531    0.1521 C   0  0  0  0  0  0  0  0  0  0  0  0
    5.7172    1.4916    0.3193 N   0  0  0  0  0  0  0  0  0  0  0  0
    6.9035    0.8819    0.1960 C   0  0  0  0  0  0  0  0  0  0  0  0
    8.0287    1.6737    0.3252 N   0  0  0  0  0  0  0  0  0  0  0  0
    7.1181   -0.4121   -0.0871 N   0  0  0  0  0  0  0  0  0  0  0  0
    6.0419   -1.1970   -0.2462 C   0  0  0  0  0  0  0  0  0  0  0  0
    6.3301   -2.5086   -0.4969 O   0  0  0  0  0  0  0  0  0  0  0  0
    4.7529   -0.6993   -0.1363 C   0  0  0  0  0  0  0  0  0  0  0  0
    3.4135   -1.1623   -0.2252 C   0  0  0  0  0  0  0  0  0  0  0  0
    2.9301   -2.8000   -0.6182 S   0  0  0  0  0  0  0  0  0  0  0  0
    2.7153   -3.5544    0.9865 C   0  0  0  0  0  0  0  0  0  0  0  0
    1.5584   -4.2997    1.2261 C   0  0  0  0  0  0  0  0  0  0  0  0
    1.3609   -4.9288    2.4586 C   0  0  0  0  0  0  0  0  0  0  0  0
    2.3087   -4.8057    3.4849 C   0  0  0  0  0  0  0  0  0  0  0  0
    2.1136   -5.4061    4.7391 C   0  0  0  0  0  0  0  0  0  0  0  0
    3.0439   -5.2321    5.7649 C   0  0  0  0  0  0  0  0  0  0  0  0
    4.1887   -4.4721    5.5441 C   0  0  0  0  0  0  0  0  0  0  0  0
    4.4137   -3.8978    4.2920 C   0  0  0  0  0  0  0  0  0  0  0  0
    3.4802   -4.0508    3.2538 C   0  0  0  0  0  0  0  0  0  0  0  0
    3.6805   -3.4571    1.9956 C   0  0  0  0  0  0  0  0  0  0  0  0
    0.7578    1.0596    0.0330 H   0  0  0  0  0  0  0  0  0  0  0  0
    0.6729   -0.4925    0.8835 H   0  0  0  0  0  0  0  0  0  0  0  0
    0.6609   -0.4428   -0.8926 H   0  0  0  0  0  0  0  0  0  0  0  0
    3.0521    1.9439    0.4438 H   0  0  0  0  0  0  0  0  0  0  0  0
    7.7923    2.6328    0.1115 H   0  0  0  0  0  0  0  0  0  0  0  0
    8.7945    1.2627   -0.1893 H   0  0  0  0  0  0  0  0  0  0  0  0
    7.3022   -2.4848   -0.4818 H   0  0  0  0  0  0  0  0  0  0  0  0
    0.7981   -4.3992    0.4550 H   0  0  0  0  0  0  0  0  0  0  0  0
    0.4521   -5.5053    2.6149 H   0  0  0  0  0  0  0  0  0  0  0  0
    1.2267   -6.0060    4.9297 H   0  0  0  0  0  0  0  0  0  0  0  0
    2.8704   -5.6846    6.7377 H   0  0  0  0  0  0  0  0  0  0  0  0
    4.9066   -4.3227    6.3463 H   0  0  0  0  0  0  0  0  0  0  0  0
    5.3171   -3.3116    4.1367 H   0  0  0  0  0  0  0  0  0  0  0  0
    4.6028   -2.9135    1.8098 H   0  0  0  0  0  0  0  0  0  0  0  0
  1  2  1  0  0  0  0
  1 24  1  0  0  0  0
  1 25  1  0  0  0  0
  1 26  1  0  0  0  0
  2  3  1  0  0  0  0
  2 12  2  0  0  0  0
  3  4  1  0  0  0  0
  3 27  1  0  0  0  0
  4  5  1  0  0  0  0
  4 11  2  0  0  0  0
  5  6  2  0  0  0  0
  6  7  1  0  0  0  0
  6  8  1  0  0  0  0
  7 28  1  0  0  0  0
  7 29  1  0  0  0  0
  8  9  2  0  0  0  0
  9 10  1  0  0  0  0
  9 11  1  0  0  0  0
 10 30  1  0  0  0  0
 11 12  1  0  0  0  0
 12 13  1  0  0  0  0
 13 14  1  0  0  0  0
 14 15  1  0  0  0  0
 14 23  2  0  0  0  0
 15 16  2  0  0  0  0
 15 31  1  0  0  0  0
 16 17  1  0  0  0  0
 16 32  1  0  0  0  0
 17 18  1  0  0  0  0
 17 22  2  0  0  0  0
 18 19  2  0  0  0  0
 18 33  1  0  0  0  0
 19 20  1  0  0  0  0
 19 34  1  0  0  0  0
 20 21  2  0  0  0  0
 20 35  1  0  0  0  0
 21 22  1  0  0  0  0
 21 36  1  0  0  0  0
 22 23  1  0  0  0  0
 23 37  1  0  0  0  0
M  END
>  <Energy>
-75.1221

$$$$

 OpenBabel04232614443D

 43 46  0  0  0  0  0  0  0  0999 V2000
    2.1723    1.9840    0.1882 C   0  0  0  0  0  0  0  0  0  0  0  0
    1.0841    0.9569    0.1001 C   0  0  0  0  0  0  0  0  0  0  0  0
    1.3019   -0.2649   -0.5344 C   0  0  0  0  0  0  0  0  0  0  0  0
    0.2893   -1.2408   -0.6259 C   0  0  0  0  0  0  0  0  0  0  0  0
    0.6374   -2.4783   -1.4114 C   0  0  0  0  0  0  0  0  0  0  0  0
   -0.9590   -1.0198    0.0059 C   0  0  0  0  0  0  0  0  0  0  0  0
   -2.0185   -1.9591    0.0018 N   0  0  0  0  0  0  0  0  0  0  0  0
   -1.9036   -3.3325    0.0635 C   0  0  0  0  0  0  0  0  0  0  0  0
   -0.9160   -3.9286    0.6802 N   0  0  0  0  0  0  0  0  0  0  0  0
   -0.7605   -5.3246    0.5931 C   0  0  0  0  0  0  0  0  0  0  0  0
    0.3957   -5.8675    1.1620 C   0  0  0  0  0  0  0  0  0  0  0  0
    0.6805   -7.2241    1.0327 C   0  0  0  0  0  0  0  0  0  0  0  0
   -0.1915   -8.0492    0.3253 C   0  0  0  0  0  0  0  0  0  0  0  0
   -1.3588   -7.5291   -0.2449 C   0  0  0  0  0  0  0  0  0  0  0  0
   -1.6531   -6.1738   -0.0988 C   0  0  0  0  0  0  0  0  0  0  0  0
   -2.7879   -5.5354   -0.6385 N   0  0  0  0  0  0  0  0  0  0  0  0
   -3.9418   -5.9361   -1.2922 C   0  0  0  0  0  0  0  0  0  0  0  0
   -4.4194   -7.3050   -1.5828 C   0  0  0  0  0  0  0  0  0  0  0  0
   -4.6389   -4.8592   -1.6211 N   0  0  0  0  0  0  0  0  0  0  0  0
   -3.9834   -3.7484   -1.1689 N   0  0  0  0  0  0  0  0  0  0  0  0
   -2.8971   -4.1697   -0.5676 C   0  0  0  0  0  0  0  0  0  0  0  0
   -1.1933    0.2417    0.6083 C   0  0  0  0  0  0  0  0  0  0  0  0
   -2.5088    0.6165    1.2458 C   0  0  0  0  0  0  0  0  0  0  0  0
   -0.1706    1.2075    0.6524 C   0  0  0  0  0  0  0  0  0  0  0  0
    3.0760    1.6580   -0.3374 H   0  0  0  0  0  0  0  0  0  0  0  0
    2.4381    2.1614    1.2352 H   0  0  0  0  0  0  0  0  0  0  0  0
    1.8435    2.9241   -0.2663 H   0  0  0  0  0  0  0  0  0  0  0  0
    2.2744   -0.4654   -0.9822 H   0  0  0  0  0  0  0  0  0  0  0  0
    1.3539   -2.2425   -2.2072 H   0  0  0  0  0  0  0  0  0  0  0  0
   -0.2348   -2.9007   -1.9172 H   0  0  0  0  0  0  0  0  0  0  0  0
    1.1023   -3.2249   -0.7624 H   0  0  0  0  0  0  0  0  0  0  0  0
   -2.8107   -1.6328   -0.5454 H   0  0  0  0  0  0  0  0  0  0  0  0
    1.0866   -5.2138    1.6889 H   0  0  0  0  0  0  0  0  0  0  0  0
    1.5909   -7.6293    1.4659 H   0  0  0  0  0  0  0  0  0  0  0  0
    0.0480   -9.1050    0.2065 H   0  0  0  0  0  0  0  0  0  0  0  0
   -1.9681   -8.2126   -0.8201 H   0  0  0  0  0  0  0  0  0  0  0  0
   -3.9090   -8.0970   -1.0428 H   0  0  0  0  0  0  0  0  0  0  0  0
   -4.3486   -7.5032   -2.6571 H   0  0  0  0  0  0  0  0  0  0  0  0
   -5.4765   -7.3849   -1.3029 H   0  0  0  0  0  0  0  0  0  0  0  0
   -3.2561   -0.1790    1.1993 H   0  0  0  0  0  0  0  0  0  0  0  0
   -2.9283    1.4907    0.7354 H   0  0  0  0  0  0  0  0  0  0  0  0
   -2.3552    0.8615    2.3021 H   0  0  0  0  0  0  0  0  0  0  0  0
   -0.3581    2.1652    1.1358 H   0  0  0  0  0  0  0  0  0  0  0  0
  1  2  1  0  0  0  0
  1 25  1  0  0  0  0
  1 26  1  0  0  0  0
  1 27  1  0  0  0  0
  2  3  1  0  0  0  0
  2 24  2  0  0  0  0
  3  4  2  0  0  0  0
  3 28  1  0  0  0  0
  4  5  1  0  0  0  0
  4  6  1  0  0  0  0
  5 29  1  0  0  0  0
  5 30  1  0  0  0  0
  5 31  1  0  0  0  0
  6  7  1  0  0  0  0
  6 22  2  0  0  0  0
  7  8  1  0  0  0  0
  7 32  1  0  0  0  0
  8  9  2  0  0  0  0
  8 21  1  0  0  0  0
  9 10  1  0  0  0  0
 10 11  1  0  0  0  0
 10 15  2  0  0  0  0
 11 12  2  0  0  0  0
 11 33  1  0  0  0  0
 12 13  1  0  0  0  0
 12 34  1  0  0  0  0
 13 14  2  0  0  0  0
 13 35  1  0  0  0  0
 14 15  1  0  0  0  0
 14 36  1  0  0  0  0
 15 16  1  0  0  0  0
 16 17  1  0  0  0  0
 16 21  1  0  0  0  0
 17 18  1  0  0  0  0
 17 19  2  0  0  0  0
 18 37  1  0  0  0  0
 18 38  1  0  0  0  0
 18 39  1  0  0  0  0
 19 20  1  0  0  0  0
 20 21  2  0  0  0  0
 22 23  1  0  0  0  0
 22 24  1  0  0  0  0
 23 40  1  0  0  0  0
 23 41  1  0  0  0  0
 23 42  1  0  0  0  0
 24 43  1  0  0  0  0
M  END
>  <Energy>
52.2711

$$$$

 OpenBabel04232614443D

 30 32  0  0  0  0  0  0  0  0999 V2000
    0.9574   -0.0569    0.0627 O   0  0  0  0  0  0  0  0  0  0  0  0
    2.1811   -0.0451    0.0171 C   0  0  0  0  0  0  0  0  0  0  0  0
    2.9444   -1.2967    0.0734 C   0  0  0  0  0  0  0  0  0  0  0  0
    4.2780   -1.2306    0.0329 C   0  0  0  0  0  0  0  0  0  0  0  0
    5.0722   -0.0928   -0.1326 N   0  0  0  0  0  0  0  0  0  0  0  0
    6.5154   -0.2355   -0.0862 C   0  0  0  0  0  0  0  0  0  0  0  0
    7.2715    0.6426    0.7262 C   0  0  0  0  0  0  0  0  0  0  0  0
    8.6711    0.6052    0.7640 C   0  0  0  0  0  0  0  0  0  0  0  0
    9.3505   -0.3785    0.0464 C   0  0  0  0  0  0  0  0  0  0  0  0
   10.8177   -0.4156    0.0665 N   0  3  0  0  0  0  0  0  0  0  0  0
   11.4088    0.5256    0.6133 O   0  0  0  0  0  0  0  0  0  0  0  0
   11.3754   -1.3813   -0.4734 O   0  5  0  0  0  0  0  0  0  0  0  0
    8.6415   -1.3135   -0.7100 C   0  0  0  0  0  0  0  0  0  0  0  0
    7.2420   -1.2238   -0.8005 C   0  0  0  0  0  0  0  0  0  0  0  0
    6.5083   -2.3356   -1.9129 Cl  0  0  0  0  0  0  0  0  0  0  0  0
    4.3668    1.1705   -0.2009 C   0  0  0  0  0  0  0  0  0  0  0  0
    5.0128    2.4063   -0.4048 C   0  0  0  0  0  0  0  0  0  0  0  0
    4.3091    3.6175   -0.3584 C   0  0  0  0  0  0  0  0  0  0  0  0
    2.9352    3.6132   -0.1708 C   0  0  0  0  0  0  0  0  0  0  0  0
    2.2713    4.7744   -0.1164 F   0  0  0  0  0  0  0  0  0  0  0  0
    2.2406    2.4213   -0.0528 C   0  0  0  0  0  0  0  0  0  0  0  0
    2.9546    1.2123   -0.0776 C   0  0  0  0  0  0  0  0  0  0  0  0
    2.3945   -2.2216    0.1777 H   0  0  0  0  0  0  0  0  0  0  0  0
    4.8244   -2.1617    0.1566 H   0  0  0  0  0  0  0  0  0  0  0  0
    6.7711    1.3865    1.3446 H   0  0  0  0  0  0  0  0  0  0  0  0
    9.2058    1.3471    1.3555 H   0  0  0  0  0  0  0  0  0  0  0  0
    9.1668   -2.0944   -1.2578 H   0  0  0  0  0  0  0  0  0  0  0  0
    6.0783    2.4663   -0.6038 H   0  0  0  0  0  0  0  0  0  0  0  0
    4.8280    4.5643   -0.4720 H   0  0  0  0  0  0  0  0  0  0  0  0
    1.1668    2.4346    0.0588 H   0  0  0  0  0  0  0  0  0  0  0  0
  1  2  2  0  0  0  0
  2  3  1  0  0  0  0
  2 22  1  0  0  0  0
  3  4  2  0  0  0  0
  3 23  1  0  0  0  0
  4  5  1  0  0  0  0
  4 24  1  0  0  0  0
  5  6  1  0  0  0  0
  5 16  1  0  0  0  0
  6  7  1  0  0  0  0
  6 14  2  0  0  0  0
  7  8  2  0  0  0  0
  7 25  1  0  0  0  0
  8  9  1  0  0  0  0
  8 26  1  0  0  0  0
  9 10  1  0  0  0  0
  9 13  2  0  0  0  0
 10 11  2  0  0  0  0
 10 12  1  0  0  0  0
 13 14  1  0  0  0  0
 13 27  1  0  0  0  0
 14 15  1  0  0  0  0
 16 17  1  0  0  0  0
 16 22  2  0  0  0  0
 17 18  2  0  0  0  0
 17 28  1  0  0  0  0
 18 19  1  0  0  0  0
 18 29  1  0  0  0  0
 19 20  1  0  0  0  0
 19 21  2  0  0  0  0
 21 22  1  0  0  0  0
 21 30  1  0  0  0  0
M  CHG  2  10   1  12  -1
M  END
>  <Energy>
88.4062

$$$$

 OpenBabel04232614443D

 46 47  0  0  1  0  0  0  0  0999 V2000
    2.0719    0.4296   -1.4712 C   0  0  0  0  0  0  0  0  0  0  0  0
    2.8171   -0.1602   -0.3633 N   0  0  0  0  0  0  0  0  0  0  0  0
    2.3436   -1.4602    0.1111 C   0  0  0  0  0  0  0  0  0  0  0  0
    3.4113    0.6791    0.5885 C   0  0  0  0  0  0  0  0  0  0  0  0
    3.2695    2.0769    0.5624 C   0  0  0  0  0  0  0  0  0  0  0  0
    3.8735    2.9068    1.5177 C   0  0  0  0  0  0  0  0  0  0  0  0
    4.6718    2.3579    2.5163 C   0  0  0  0  0  0  0  0  0  0  0  0
    5.3615    3.2151    3.4810 C   0  0  0  0  0  0  0  0  0  0  0  0
    4.9209    3.5304    4.7153 C   0  0  0  0  0  0  0  0  0  0  0  0
    5.8391    4.2686    5.5827 C   0  0  0  0  0  0  0  0  0  0  0  0
    6.8201    4.8760    5.1582 O   0  0  0  0  0  0  0  0  0  0  0  0
    5.5718    4.2182    6.8970 O   0  0  0  0  0  0  0  0  0  0  0  0
    4.3489    3.6648    7.4118 C   0  0  3  0  0  0  0  0  0  0  0  0
    4.7811    2.7526    8.5733 C   0  0  0  0  0  0  0  0  0  0  0  0
    3.3977    4.8365    7.8760 C   0  0  0  0  0  0  0  0  0  0  0  0
    3.0368    5.7865    6.7075 C   0  0  0  0  0  0  0  0  0  0  0  0
    2.0726    4.2782    8.4358 C   0  0  0  0  0  0  0  0  0  0  0  0
    4.0741    5.7093    8.9542 C   0  0  0  0  0  0  0  0  0  0  0  0
    3.6469    2.7882    6.5246 O   0  0  0  0  0  0  0  0  0  0  0  0
    3.6236    3.0919    5.2185 C   0  0  0  0  0  0  0  0  0  0  0  0
    2.6135    2.9565    4.5429 O   0  0  0  0  0  0  0  0  0  0  0  0
    4.8356    0.9750    2.5686 C   0  0  0  0  0  0  0  0  0  0  0  0
    4.2155    0.1557    1.6164 C   0  0  0  0  0  0  0  0  0  0  0  0
    1.6661   -0.3446   -2.1322 H   0  0  0  0  0  0  0  0  0  0  0  0
    2.7296    1.0501   -2.0907 H   0  0  0  0  0  0  0  0  0  0  0  0
    1.2281    1.0300   -1.1148 H   0  0  0  0  0  0  0  0  0  0  0  0
    1.7034   -1.9498   -0.6313 H   0  0  0  0  0  0  0  0  0  0  0  0
    1.7557   -1.3578    1.0303 H   0  0  0  0  0  0  0  0  0  0  0  0
    3.1828   -2.1411    0.2892 H   0  0  0  0  0  0  0  0  0  0  0  0
    2.6646    2.5637   -0.1962 H   0  0  0  0  0  0  0  0  0  0  0  0
    3.7045    3.9797    1.4699 H   0  0  0  0  0  0  0  0  0  0  0  0
    6.3430    3.5443    3.1413 H   0  0  0  0  0  0  0  0  0  0  0  0
    5.3421    3.2903    9.3434 H   0  0  0  0  0  0  0  0  0  0  0  0
    5.4492    1.9640    8.2030 H   0  0  0  0  0  0  0  0  0  0  0  0
    3.9299    2.2414    9.0337 H   0  0  0  0  0  0  0  0  0  0  0  0
    2.4213    5.2935    5.9501 H   0  0  0  0  0  0  0  0  0  0  0  0
    3.9287    6.1916    6.2194 H   0  0  0  0  0  0  0  0  0  0  0  0
    2.4542    6.6434    7.0662 H   0  0  0  0  0  0  0  0  0  0  0  0
    1.5799    3.6145    7.7163 H   0  0  0  0  0  0  0  0  0  0  0  0
    1.3693    5.0861    8.6642 H   0  0  0  0  0  0  0  0  0  0  0  0
    2.2297    3.7134    9.3599 H   0  0  0  0  0  0  0  0  0  0  0  0
    5.0386    6.0967    8.6079 H   0  0  0  0  0  0  0  0  0  0  0  0
    4.2429    5.1541    9.8817 H   0  0  0  0  0  0  0  0  0  0  0  0
    3.4485    6.5720    9.2106 H   0  0  0  0  0  0  0  0  0  0  0  0
    5.4537    0.5149    3.3352 H   0  0  0  0  0  0  0  0  0  0  0  0
    4.4003   -0.9126    1.6810 H   0  0  0  0  0  0  0  0  0  0  0  0
  1  2  1  0  0  0  0
  1 24  1  0  0  0  0
  1 25  1  0  0  0  0
  1 26  1  0  0  0  0
  2  3  1  0  0  0  0
  2  4  1  0  0  0  0
  3 27  1  0  0  0  0
  3 28  1  0  0  0  0
  3 29  1  0  0  0  0
  4  5  1  0  0  0  0
  4 23  2  0  0  0  0
  5  6  2  0  0  0  0
  5 30  1  0  0  0  0
  6  7  1  0  0  0  0
  6 31  1  0  0  0  0
  7  8  1  0  0  0  0
  7 22  2  0  0  0  0
  8  9  2  3  0  0  0
  8 32  1  0  0  0  0
  9 10  1  0  0  0  0
  9 20  1  0  0  0  0
 10 11  2  0  0  0  0
 10 12  1  0  0  0  0
 12 13  1  0  0  0  0
 13 14  1  0  0  0  0
 13 15  1  0  0  0  0
 13 19  1  0  0  0  0
 14 33  1  0  0  0  0
 14 34  1  0  0  0  0
 14 35  1  0  0  0  0
 15 16  1  0  0  0  0
 15 17  1  0  0  0  0
 15 18  1  0  0  0  0
 16 36  1  0  0  0  0
 16 37  1  0  0  0  0
 16 38  1  0  0  0  0
 17 39  1  0  0  0  0
 17 40  1  0  0  0  0
 17 41  1  0  0  0  0
 18 42  1  0  0  0  0
 18 43  1  0  0  0  0
 18 44  1  0  0  0  0
 19 20  1  0  0  0  0
 20 21  2  0  0  0  0
 22 23  1  0  0  0  0
 22 45  1  0  0  0  0
 23 46  1  0  0  0  0
M  END
>  <Energy>
5.05841

$$$$

 OpenBabel04232614443D

 31 33  0  0  0  0  0  0  0  0999 V2000
    1.0397   -0.4961   -0.0984 O   0  0  0  0  0  0  0  0  0  0  0  0
    2.2123   -0.1253   -0.0800 C   0  0  0  0  0  0  0  0  0  0  0  0
    2.7183    0.9039    0.6697 N   0  0  0  0  0  0  0  0  0  0  0  0
    2.0112    1.7275    1.5677 C   0  0  0  0  0  0  0  0  0  0  0  0
    0.7425    1.4148    2.0644 C   0  0  0  0  0  0  0  0  0  0  0  0
    0.0659    2.3043    2.9042 C   0  0  0  0  0  0  0  0  0  0  0  0
    0.6510    3.5186    3.2549 C   0  0  0  0  0  0  0  0  0  0  0  0
    1.9253    3.8157    2.7848 C   0  0  0  0  0  0  0  0  0  0  0  0
    2.5309    4.9999    3.0927 O   0  0  0  0  0  0  0  0  0  0  0  0
    2.6170    2.9243    1.9675 C   0  0  0  0  0  0  0  0  0  0  0  0
    3.0858   -0.7985   -0.8850 N   0  0  0  0  0  0  0  0  0  0  0  0
    4.4225   -0.5774   -0.9978 C   0  0  0  0  0  0  0  0  0  0  0  0
    5.1276    0.3751   -0.4410 N   0  0  0  0  0  0  0  0  0  0  0  0
    6.4604    0.1954   -0.7736 C   0  0  0  0  0  0  0  0  0  0  0  0
    7.5308    1.0090   -0.3536 C   0  0  0  0  0  0  0  0  0  0  0  0
    8.8378    0.6903   -0.7401 C   0  0  0  0  0  0  0  0  0  0  0  0
    9.0805   -0.4228   -1.5391 C   0  0  0  0  0  0  0  0  0  0  0  0
   10.6988   -0.8065   -1.9863 Cl  0  0  0  0  0  0  0  0  0  0  0  0
    8.0390   -1.2386   -1.9857 C   0  0  0  0  0  0  0  0  0  0  0  0
    6.7327   -0.9072   -1.5913 C   0  0  0  0  0  0  0  0  0  0  0  0
    5.2491   -1.6980   -1.9695 S   0  0  0  0  0  0  0  0  0  0  0  0
    3.6736    1.1750    0.4487 H   0  0  0  0  0  0  0  0  0  0  0  0
    0.2555    0.4754    1.8201 H   0  0  0  0  0  0  0  0  0  0  0  0
   -0.9233    2.0460    3.2731 H   0  0  0  0  0  0  0  0  0  0  0  0
    0.1039    4.2092    3.8882 H   0  0  0  0  0  0  0  0  0  0  0  0
    1.8940    5.5551    3.5710 H   0  0  0  0  0  0  0  0  0  0  0  0
    3.6080    3.1944    1.6155 H   0  0  0  0  0  0  0  0  0  0  0  0
    2.6812   -1.5633   -1.4067 H   0  0  0  0  0  0  0  0  0  0  0  0
    7.3359    1.8734    0.2749 H   0  0  0  0  0  0  0  0  0  0  0  0
    9.6602    1.3175   -0.4052 H   0  0  0  0  0  0  0  0  0  0  0  0
    8.2304   -2.1058   -2.6106 H   0  0  0  0  0  0  0  0  0  0  0  0
  1  2  2  0  0  0  0
  2  3  1  0  0  0  0
  2 11  1  0  0  0  0
  3  4  1  0  0  0  0
  3 22  1  0  0  0  0
  4  5  1  0  0  0  0
  4 10  2  0  0  0  0
  5  6  2  0  0  0  0
  5 23  1  0  0  0  0
  6  7  1  0  0  0  0
  6 24  1  0  0  0  0
  7  8  2  0  0  0  0
  7 25  1  0  0  0  0
  8  9  1  0  0  0  0
  8 10  1  0  0  0  0
  9 26  1  0  0  0  0
 10 27  1  0  0  0  0
 11 12  1  0  0  0  0
 11 28  1  0  0  0  0
 12 13  2  0  0  0  0
 12 21  1  0  0  0  0
 13 14  1  0  0  0  0
 14 15  1  0  0  0  0
 14 20  2  0  0  0  0
 15 16  2  0  0  0  0
 15 29  1  0  0  0  0
 16 17  1  0  0  0  0
 16 30  1  0  0  0  0
 17 18  1  0  0  0  0
 17 19  2  0  0  0  0
 19 20  1  0  0  0  0
 19 31  1  0  0  0  0
 20 21  1  0  0  0  0
M  END
>  <Energy>
-73.9711

$$$$

 OpenBabel04232614443D

 41 45  0  0  0  0  0  0  0  0999 V2000
    1.3773   -0.3190    0.0085 C   0  0  0  0  0  0  0  0  0  0  0  0
    2.8559   -0.1635   -0.0139 C   0  0  0  0  0  0  0  0  0  0  0  0
    3.3527    1.0715    0.0303 N   0  0  0  0  0  0  0  0  0  0  0  0
    4.6990    0.9338    0.0046 N   0  0  0  0  0  0  0  0  0  0  0  0
    5.0647   -0.4277   -0.0243 C   0  0  0  0  0  0  0  0  0  0  0  0
    6.3837   -0.8135   -0.0340 N   0  0  0  0  0  0  0  0  0  0  0  0
    7.2500    0.1472   -0.0768 C   0  0  0  0  0  0  0  0  0  0  0  0
    6.9568    1.6015   -0.1355 C   0  0  0  0  0  0  0  0  0  0  0  0
    5.6593    1.9741   -0.0577 C   0  0  0  0  0  0  0  0  0  0  0  0
    5.2422    3.3222   -0.0537 N   0  0  0  0  0  0  0  0  0  0  0  0
    5.8703    4.4076   -0.6449 C   0  0  0  0  0  0  0  0  0  0  0  0
    5.1181    5.5167   -0.3491 C   0  0  0  0  0  0  0  0  0  0  0  0
    4.0395    5.1778    0.4061 N   0  0  0  0  0  0  0  0  0  0  0  0
    4.1190    3.8722    0.5466 C   0  0  0  0  0  0  0  0  0  0  0  0
    8.2460    2.3440   -0.1453 C   0  0  0  0  0  0  0  0  0  0  0  0
    9.3492    1.2904   -0.0237 C   0  0  0  0  0  0  0  0  0  0  0  0
    8.7256   -0.1036   -0.0500 C   0  0  0  0  0  0  0  0  0  0  0  0
    3.8774   -1.1523   -0.0626 C   0  0  0  0  0  0  0  0  0  0  0  0
    3.7762   -2.6095   -0.1491 C   0  0  0  0  0  0  0  0  0  0  0  0
    4.6785   -3.4505    0.5161 C   0  0  0  0  0  0  0  0  0  0  0  0
    4.5569   -4.8433    0.4350 C   0  0  0  0  0  0  0  0  0  0  0  0
    3.5247   -5.4167   -0.3033 C   0  0  0  0  0  0  0  0  0  0  0  0
    2.6195   -4.5982   -0.9697 C   0  0  0  0  0  0  0  0  0  0  0  0
    2.7515   -3.2077   -0.8998 C   0  0  0  0  0  0  0  0  0  0  0  0
    0.8796    0.6517    0.1169 H   0  0  0  0  0  0  0  0  0  0  0  0
    1.0653   -0.9489    0.8464 H   0  0  0  0  0  0  0  0  0  0  0  0
    1.0136   -0.7563   -0.9250 H   0  0  0  0  0  0  0  0  0  0  0  0
    6.7420    4.3034   -1.2692 H   0  0  0  0  0  0  0  0  0  0  0  0
    5.2906    6.5382   -0.6613 H   0  0  0  0  0  0  0  0  0  0  0  0
    3.4186    3.2769    1.1163 H   0  0  0  0  0  0  0  0  0  0  0  0
    8.3022    3.0483    0.6923 H   0  0  0  0  0  0  0  0  0  0  0  0
    8.3819    2.8953   -1.0797 H   0  0  0  0  0  0  0  0  0  0  0  0
    9.9188    1.4398    0.9015 H   0  0  0  0  0  0  0  0  0  0  0  0
   10.0697    1.4011   -0.8433 H   0  0  0  0  0  0  0  0  0  0  0  0
    8.9947   -0.6736    0.8444 H   0  0  0  0  0  0  0  0  0  0  0  0
    9.0264   -0.6637   -0.9397 H   0  0  0  0  0  0  0  0  0  0  0  0
    5.4903   -3.0335    1.1074 H   0  0  0  0  0  0  0  0  0  0  0  0
    5.2718   -5.4790    0.9505 H   0  0  0  0  0  0  0  0  0  0  0  0
    3.4298   -6.4977   -0.3646 H   0  0  0  0  0  0  0  0  0  0  0  0
    1.8131   -5.0376   -1.5514 H   0  0  0  0  0  0  0  0  0  0  0  0
    2.0447   -2.6056   -1.4609 H   0  0  0  0  0  0  0  0  0  0  0  0
  1  2  1  0  0  0  0
  1 25  1  0  0  0  0
  1 26  1  0  0  0  0
  1 27  1  0  0  0  0
  2  3  2  0  0  0  0
  2 18  1  0  0  0  0
  3  4  1  0  0  0  0
  4  5  1  0  0  0  0
  4  9  1  0  0  0  0
  5  6  1  0  0  0  0
  5 18  2  0  0  0  0
  6  7  2  0  0  0  0
  7  8  1  0  0  0  0
  7 17  1  0  0  0  0
  8  9  2  0  0  0  0
  8 15  1  0  0  0  0
  9 10  1  0  0  0  0
 10 11  1  0  0  0  0
 10 14  1  0  0  0  0
 11 12  2  0  0  0  0
 11 28  1  0  0  0  0
 12 13  1  0  0  0  0
 12 29  1  0  0  0  0
 13 14  2  0  0  0  0
 14 30  1  0  0  0  0
 15 16  1  0  0  0  0
 15 31  1  0  0  0  0
 15 32  1  0  0  0  0
 16 17  1  0  0  0  0
 16 33  1  0  0  0  0
 16 34  1  0  0  0  0
 17 35  1  0  0  0  0
 17 36  1  0  0  0  0
 18 19  1  0  0  0  0
 19 20  1  0  0  0  0
 19 24  2  0  0  0  0
 20 21  2  0  0  0  0
 20 37  1  0  0  0  0
 21 22  1  0  0  0  0
 21 38  1  0  0  0  0
 22 23  2  0  0  0  0
 22 39  1  0  0  0  0
 23 24  1  0  0  0  0
 23 40  1  0  0  0  0
 24 41  1  0  0  0  0
M  END
>  <Energy>
87.4329

$$$$

 OpenBabel04232614443D

 39 42  0  0  0  0  0  0  0  0999 V2000
    0.9262   -0.0013   -0.4432 O   0  0  0  0  0  0  0  0  0  0  0  0
    2.1315    0.0461   -0.2130 C   0  0  0  0  0  0  0  0  0  0  0  0
    2.9008   -1.1986   -0.1085 C   0  0  0  0  0  0  0  0  0  0  0  0
    2.2958   -2.4520   -0.1248 C   0  0  0  0  0  0  0  0  0  0  0  0
    3.0949   -3.5939   -0.0371 C   0  0  0  0  0  0  0  0  0  0  0  0
    4.4801   -3.4207    0.0700 C   0  0  0  0  0  0  0  0  0  0  0  0
    5.0695   -2.1962    0.0970 N   0  0  0  0  0  0  0  0  0  0  0  0
    4.2734   -1.1063    0.0216 C   0  0  0  0  0  0  0  0  0  0  0  0
    4.9409    0.1180    0.1054 N   0  0  0  0  0  0  0  0  0  0  0  0
    4.2188    1.1889    0.0858 C   0  0  0  0  0  0  0  0  0  0  0  0
    2.8525    1.2170   -0.0514 N   0  0  0  0  0  0  0  0  0  0  0  0
    2.1396    2.4899   -0.0189 C   0  0  0  0  0  0  0  0  0  0  0  0
    1.8309    2.9038    1.4057 C   0  0  0  0  0  0  0  0  0  0  0  0
    2.7112    3.7359    2.1143 C   0  0  0  0  0  0  0  0  0  0  0  0
    2.4909    4.0125    3.4659 C   0  0  0  0  0  0  0  0  0  0  0  0
    1.3870    3.4648    4.1153 C   0  0  0  0  0  0  0  0  0  0  0  0
    1.1576    3.7490    5.7966 Cl  0  0  0  0  0  0  0  0  0  0  0  0
    0.4810    2.6713    3.4160 C   0  0  0  0  0  0  0  0  0  0  0  0
    0.7016    2.3919    2.0648 C   0  0  0  0  0  0  0  0  0  0  0  0
    5.4114   -4.6089    0.0776 C   0  0  0  0  0  0  0  0  0  0  0  0
    4.7211   -5.9203    0.4516 C   0  0  0  0  0  0  0  0  0  0  0  0
    3.4243   -6.0815   -0.3331 C   0  0  0  0  0  0  0  0  0  0  0  0
    2.4538   -4.9544    0.0096 C   0  0  0  0  0  0  0  0  0  0  0  0
    1.2145   -2.5340   -0.1993 H   0  0  0  0  0  0  0  0  0  0  0  0
    4.6974    2.1758    0.1765 H   0  0  0  0  0  0  0  0  0  0  0  0
    1.2084    2.4228   -0.5936 H   0  0  0  0  0  0  0  0  0  0  0  0
    2.7564    3.2575   -0.5018 H   0  0  0  0  0  0  0  0  0  0  0  0
    3.5873    4.1591    1.6277 H   0  0  0  0  0  0  0  0  0  0  0  0
    3.1935    4.6383    4.0101 H   0  0  0  0  0  0  0  0  0  0  0  0
   -0.3854    2.2505    3.9198 H   0  0  0  0  0  0  0  0  0  0  0  0
   -0.0022    1.7505    1.5346 H   0  0  0  0  0  0  0  0  0  0  0  0
    6.2429   -4.4264    0.7679 H   0  0  0  0  0  0  0  0  0  0  0  0
    5.8373   -4.7026   -0.9294 H   0  0  0  0  0  0  0  0  0  0  0  0
    4.5038   -5.9355    1.5270 H   0  0  0  0  0  0  0  0  0  0  0  0
    5.3912   -6.7629    0.2470 H   0  0  0  0  0  0  0  0  0  0  0  0
    2.9605   -7.0481   -0.1070 H   0  0  0  0  0  0  0  0  0  0  0  0
    3.6413   -6.0719   -1.4089 H   0  0  0  0  0  0  0  0  0  0  0  0
    2.0605   -5.1095    1.0226 H   0  0  0  0  0  0  0  0  0  0  0  0
    1.6052   -4.9934   -0.6831 H   0  0  0  0  0  0  0  0  0  0  0  0
  1  2  2  0  0  0  0
  2  3  1  0  0  0  0
  2 11  1  0  0  0  0
  3  4  1  0  0  0  0
  3  8  2  0  0  0  0
  4  5  2  0  0  0  0
  4 24  1  0  0  0  0
  5  6  1  0  0  0  0
  5 23  1  0  0  0  0
  6  7  2  0  0  0  0
  6 20  1  0  0  0  0
  7  8  1  0  0  0  0
  8  9  1  0  0  0  0
  9 10  2  0  0  0  0
 10 11  1  0  0  0  0
 10 25  1  0  0  0  0
 11 12  1  0  0  0  0
 12 13  1  0  0  0  0
 12 26  1  0  0  0  0
 12 27  1  0  0  0  0
 13 14  1  0  0  0  0
 13 19  2  0  0  0  0
 14 15  2  0  0  0  0
 14 28  1  0  0  0  0
 15 16  1  0  0  0  0
 15 29  1  0  0  0  0
 16 17  1  0  0  0  0
 16 18  2  0  0  0  0
 18 19  1  0  0  0  0
 18 30  1  0  0  0  0
 19 31  1  0  0  0  0
 20 21  1  0  0  0  0
 20 32  1  0  0  0  0
 20 33  1  0  0  0  0
 21 22  1  0  0  0  0
 21 34  1  0  0  0  0
 21 35  1  0  0  0  0
 22 23  1  0  0  0  0
 22 36  1  0  0  0  0
 22 37  1  0  0  0  0
 23 38  1  0  0  0  0
 23 39  1  0  0  0  0
M  END
>  <Energy>
-11.3344

$$$$

 OpenBabel04232614443D

 26 27  0  0  0  0  0  0  0  0999 V2000
    1.8778   -0.8832   -1.7422 C   0  0  0  0  0  0  0  0  0  0  0  0
    2.3038   -0.0138   -0.5739 C   0  0  0  0  0  0  0  0  0  0  0  0
    2.9925    1.1293   -1.1009 O   0  0  0  0  0  0  0  0  0  0  0  0
    4.3332    1.0033   -1.2259 C   0  0  0  0  0  0  0  0  0  0  0  0
    4.9996    0.0696   -0.7999 O   0  0  0  0  0  0  0  0  0  0  0  0
    4.8852    2.0577   -2.1018 C   0  0  0  0  0  0  0  0  0  0  0  0
    5.9774    1.7050   -2.8000 C   0  0  0  0  0  0  0  0  0  0  0  0
    6.5959    2.6254   -3.7351 C   0  0  0  0  0  0  0  0  0  0  0  0
    7.7342    2.2712   -4.4627 C   0  0  0  0  0  0  0  0  0  0  0  0
    8.3049    3.1900   -5.3444 C   0  0  0  0  0  0  0  0  0  0  0  0
    9.7139    2.7519   -6.2293 Cl  0  0  0  0  0  0  0  0  0  0  0  0
    7.7493    4.4586   -5.5122 C   0  0  0  0  0  0  0  0  0  0  0  0
    6.6060    4.8088   -4.7933 C   0  0  0  0  0  0  0  0  0  0  0  0
    5.8703    6.5360   -5.0368 Br  0  0  0  0  0  0  0  0  0  0  0  0
    6.0364    3.8880   -3.9108 C   0  0  0  0  0  0  0  0  0  0  0  0
    4.8823    4.2438   -3.1823 O   0  0  0  0  0  0  0  0  0  0  0  0
    4.2760    3.3954   -2.2521 C   0  0  0  0  0  0  0  0  0  0  0  0
    3.3141    3.7781   -1.6004 O   0  0  0  0  0  0  0  0  0  0  0  0
    1.3445   -1.7734   -1.4006 H   0  0  0  0  0  0  0  0  0  0  0  0
    2.7462   -1.1949   -2.3328 H   0  0  0  0  0  0  0  0  0  0  0  0
    1.2275   -0.3163   -2.4175 H   0  0  0  0  0  0  0  0  0  0  0  0
    2.9196   -0.5762    0.1379 H   0  0  0  0  0  0  0  0  0  0  0  0
    1.4256    0.3474   -0.0304 H   0  0  0  0  0  0  0  0  0  0  0  0
    6.4218    0.7165   -2.6966 H   0  0  0  0  0  0  0  0  0  0  0  0
    8.1812    1.2861   -4.3466 H   0  0  0  0  0  0  0  0  0  0  0  0
    8.2096    5.1660   -6.1974 H   0  0  0  0  0  0  0  0  0  0  0  0
  1  2  1  0  0  0  0
  1 19  1  0  0  0  0
  1 20  1  0  0  0  0
  1 21  1  0  0  0  0
  2  3  1  0  0  0  0
  2 22  1  0  0  0  0
  2 23  1  0  0  0  0
  3  4  1  0  0  0  0
  4  5  2  0  0  0  0
  4  6  1  0  0  0  0
  6  7  2  0  0  0  0
  6 17  1  0  0  0  0
  7  8  1  0  0  0  0
  7 24  1  0  0  0  0
  8  9  1  0  0  0  0
  8 15  2  0  0  0  0
  9 10  2  0  0  0  0
  9 25  1  0  0  0  0
 10 11  1  0  0  0  0
 10 12  1  0  0  0  0
 12 13  2  0  0  0  0
 12 26  1  0  0  0  0
 13 14  1  0  0  0  0
 13 15  1  0  0  0  0
 15 16  1  0  0  0  0
 16 17  1  0  0  0  0
 17 18  2  0  0  0  0
M  END
>  <Energy>
15.3168

$$$$

 OpenBabel04232614443D

 35 37  0  0  0  0  0  0  0  0999 V2000
   -1.6238   -2.0907   -1.1280 C   0  0  0  0  0  0  0  0  0  0  0  0
   -0.7758   -1.0276   -0.4840 C   0  0  0  0  0  0  0  0  0  0  0  0
   -1.2937    0.2811   -0.4182 C   0  0  0  0  0  0  0  0  0  0  0  0
   -0.5661    1.3144    0.1721 C   0  0  0  0  0  0  0  0  0  0  0  0
    0.6860    1.0574    0.7130 C   0  0  0  0  0  0  0  0  0  0  0  0
    1.2185   -0.2330    0.6595 C   0  0  0  0  0  0  0  0  0  0  0  0
    0.5049   -1.2866    0.0542 C   0  0  0  0  0  0  0  0  0  0  0  0
    1.1125   -2.6590    0.0241 C   0  0  0  0  0  0  0  0  0  0  0  0
    0.4673   -3.6947   -0.0088 O   0  0  0  0  0  0  0  0  0  0  0  0
    2.4788   -2.5338    0.0101 O   0  0  0  0  0  0  0  0  0  0  0  0
    3.1091   -3.7969    0.0175 N   0  0  0  0  0  0  0  0  0  0  0  0
    4.4011   -3.6962   -0.0246 C   0  0  0  0  0  0  0  0  0  0  0  0
    5.1809   -2.3781   -0.0607 C   0  0  0  0  0  0  0  0  0  0  0  0
    6.2654   -2.3845   -1.1319 C   0  0  0  0  0  0  0  0  0  0  0  0
    7.5374   -3.5819   -0.7608 S   0  0  0  0  0  0  0  0  0  0  0  0
    8.2088   -3.9560   -1.9865 O   0  0  0  0  0  0  0  0  0  0  0  0
    8.2317   -3.1772    0.4419 O   0  0  0  0  0  0  0  0  0  0  0  0
    6.5206   -4.9467   -0.2899 C   0  0  0  0  0  0  0  0  0  0  0  0
    7.2432   -6.4762   -0.1612 S   0  0  0  0  0  0  0  0  0  0  0  0
    5.7443   -7.1969    0.2516 C   0  0  0  0  0  0  0  0  0  0  0  0
    4.7211   -6.2732    0.2974 C   0  0  0  0  0  0  0  0  0  0  0  0
    5.1697   -4.9456    0.0024 C   0  0  0  0  0  0  0  0  0  0  0  0
   -2.5525   -1.6694   -1.5302 H   0  0  0  0  0  0  0  0  0  0  0  0
   -1.9102   -2.8506   -0.3949 H   0  0  0  0  0  0  0  0  0  0  0  0
   -1.0918   -2.5527   -1.9653 H   0  0  0  0  0  0  0  0  0  0  0  0
   -2.2775    0.5043   -0.8277 H   0  0  0  0  0  0  0  0  0  0  0  0
   -0.9856    2.3173    0.2145 H   0  0  0  0  0  0  0  0  0  0  0  0
    1.2484    1.8598    1.1857 H   0  0  0  0  0  0  0  0  0  0  0  0
    2.1913   -0.4035    1.1141 H   0  0  0  0  0  0  0  0  0  0  0  0
    5.6191   -2.2296    0.9338 H   0  0  0  0  0  0  0  0  0  0  0  0
    4.5151   -1.5328   -0.2500 H   0  0  0  0  0  0  0  0  0  0  0  0
    6.7558   -1.4090   -1.2011 H   0  0  0  0  0  0  0  0  0  0  0  0
    5.8495   -2.6428   -2.1114 H   0  0  0  0  0  0  0  0  0  0  0  0
    5.6923   -8.2605    0.4416 H   0  0  0  0  0  0  0  0  0  0  0  0
    3.6971   -6.5341    0.5452 H   0  0  0  0  0  0  0  0  0  0  0  0
  1  2  1  0  0  0  0
  1 23  1  0  0  0  0
  1 24  1  0  0  0  0
  1 25  1  0  0  0  0
  2  3  1  0  0  0  0
  2  7  2  0  0  0  0
  3  4  2  0  0  0  0
  3 26  1  0  0  0  0
  4  5  1  0  0  0  0
  4 27  1  0  0  0  0
  5  6  2  0  0  0  0
  5 28  1  0  0  0  0
  6  7  1  0  0  0  0
  6 29  1  0  0  0  0
  7  8  1  0  0  0  0
  8  9  2  0  0  0  0
  8 10  1  0  0  0  0
 10 11  1  0  0  0  0
 11 12  2  0  0  0  0
 12 13  1  0  0  0  0
 12 22  1  0  0  0  0
 13 14  1  0  0  0  0
 13 30  1  0  0  0  0
 13 31  1  0  0  0  0
 14 15  1  0  0  0  0
 14 32  1  0  0  0  0
 14 33  1  0  0  0  0
 15 16  2  0  0  0  0
 15 17  2  0  0  0  0
 15 18  1  0  0  0  0
 18 19  1  0  0  0  0
 18 22  2  0  0  0  0
 19 20  1  0  0  0  0
 20 21  2  0  0  0  0
 20 34  1  0  0  0  0
 21 22  1  0  0  0  0
 21 35  1  0  0  0  0
M  END
>  <Energy>
99.7803

$$$$

 OpenBabel04232614443D

 40 43  0  0  0  0  0  0  0  0999 V2000
    1.2332    0.7805    0.3297 N   0  0  0  0  0  0  0  0  0  0  0  0
    2.3339   -0.0025    0.0965 C   0  0  0  0  0  0  0  0  0  0  0  0
    2.6792   -0.8036    0.9643 O   0  0  0  0  0  0  0  0  0  0  0  0
    3.0221    0.1779   -1.1728 C   0  0  0  0  0  0  0  0  0  0  0  0
    2.5285    1.3691   -2.2966 S   0  0  0  0  0  0  0  0  0  0  0  0
    3.7627    0.9556   -3.3904 C   0  0  0  0  0  0  0  0  0  0  0  0
    3.8554    1.6257   -4.5495 N   0  0  0  0  0  0  0  0  0  0  0  0
    4.8633    1.2638   -5.3732 C   0  0  0  0  0  0  0  0  0  0  0  0
    4.8744    2.0748   -6.6292 C   0  0  0  0  0  0  0  0  0  0  0  0
    4.5250    3.4418   -6.5939 C   0  0  0  0  0  0  0  0  0  0  0  0
    4.5186    4.2364   -7.7468 C   0  0  0  0  0  0  0  0  0  0  0  0
    4.8774    3.6872   -8.9723 C   0  0  0  0  0  0  0  0  0  0  0  0
    5.2005    2.3381   -9.0480 C   0  0  0  0  0  0  0  0  0  0  0  0
    5.1678    1.5413   -7.8969 C   0  0  0  0  0  0  0  0  0  0  0  0
    5.7887    0.2485   -5.0429 C   0  0  0  0  0  0  0  0  0  0  0  0
    5.6218   -0.4827   -3.8281 C   0  0  0  0  0  0  0  0  0  0  0  0
    4.5718   -0.0801   -2.9493 C   0  0  0  0  0  0  0  0  0  0  0  0
    4.1276   -0.5136   -1.6415 C   0  0  0  0  0  0  0  0  0  0  0  0
    4.7112   -1.4978   -0.9149 N   0  0  0  0  0  0  0  0  0  0  0  0
    6.5506   -1.6219   -3.4731 C   0  0  0  0  0  0  0  0  0  0  0  0
    7.4134   -2.1251   -4.6212 C   0  0  0  0  0  0  0  0  0  0  0  0
    8.0432   -0.9436   -5.3309 C   0  0  0  0  0  0  0  0  0  0  0  0
    6.9432   -0.0987   -5.9641 C   0  0  0  0  0  0  0  0  0  0  0  0
    0.7391    0.6563    1.2001 H   0  0  0  0  0  0  0  0  0  0  0  0
    0.9022    1.4490   -0.3489 H   0  0  0  0  0  0  0  0  0  0  0  0
    4.2356    3.9006   -5.6488 H   0  0  0  0  0  0  0  0  0  0  0  0
    4.2284    5.2818   -7.6825 H   0  0  0  0  0  0  0  0  0  0  0  0
    4.8863    4.3027   -9.8675 H   0  0  0  0  0  0  0  0  0  0  0  0
    5.4643    1.8948  -10.0049 H   0  0  0  0  0  0  0  0  0  0  0  0
    5.3579    0.4815   -8.0256 H   0  0  0  0  0  0  0  0  0  0  0  0
    5.6645   -1.8029   -1.0644 H   0  0  0  0  0  0  0  0  0  0  0  0
    4.3878   -1.6762    0.0417 H   0  0  0  0  0  0  0  0  0  0  0  0
    5.9657   -2.4719   -3.1052 H   0  0  0  0  0  0  0  0  0  0  0  0
    7.2046   -1.2809   -2.6600 H   0  0  0  0  0  0  0  0  0  0  0  0
    6.8018   -2.7032   -5.3257 H   0  0  0  0  0  0  0  0  0  0  0  0
    8.1863   -2.8009   -4.2382 H   0  0  0  0  0  0  0  0  0  0  0  0
    8.7312   -1.2931   -6.1091 H   0  0  0  0  0  0  0  0  0  0  0  0
    8.6286   -0.3437   -4.6237 H   0  0  0  0  0  0  0  0  0  0  0  0
    6.5438   -0.6783   -6.8030 H   0  0  0  0  0  0  0  0  0  0  0  0
    7.4067    0.8153   -6.3516 H   0  0  0  0  0  0  0  0  0  0  0  0
  1  2  1  0  0  0  0
  1 24  1  0  0  0  0
  1 25  1  0  0  0  0
  2  3  2  0  0  0  0
  2  4  1  0  0  0  0
  4  5  1  0  0  0  0
  4 18  2  0  0  0  0
  5  6  1  0  0  0  0
  6  7  1  0  0  0  0
  6 17  2  0  0  0  0
  7  8  2  0  0  0  0
  8  9  1  0  0  0  0
  8 15  1  0  0  0  0
  9 10  1  0  0  0  0
  9 14  2  0  0  0  0
 10 11  2  0  0  0  0
 10 26  1  0  0  0  0
 11 12  1  0  0  0  0
 11 27  1  0  0  0  0
 12 13  2  0  0  0  0
 12 28  1  0  0  0  0
 13 14  1  0  0  0  0
 13 29  1  0  0  0  0
 14 30  1  0  0  0  0
 15 16  2  0  0  0  0
 15 23  1  0  0  0  0
 16 17  1  0  0  0  0
 16 20  1  0  0  0  0
 17 18  1  0  0  0  0
 18 19  1  0  0  0  0
 19 31  1  0  0  0  0
 19 32  1  0  0  0  0
 20 21  1  0  0  0  0
 20 33  1  0  0  0  0
 20 34  1  0  0  0  0
 21 22  1  0  0  0  0
 21 35  1  0  0  0  0
 21 36  1  0  0  0  0
 22 23  1  0  0  0  0
 22 37  1  0  0  0  0
 22 38  1  0  0  0  0
 23 39  1  0  0  0  0
 23 40  1  0  0  0  0
M  END
>  <Energy>
35.3752

$$$$

 OpenBabel04232614443D

 36 38  0  0  0  0  0  0  0  0999 V2000
    0.9472    0.0068    0.1153 O   0  0  0  0  0  0  0  0  0  0  0  0
    2.1713   -0.0140    0.0169 C   0  0  0  0  0  0  0  0  0  0  0  0
    2.9161   -1.2996   -0.0460 C   0  0  0  0  0  0  0  0  0  0  0  0
    1.9821   -2.6782   -0.5371 Cl  0  0  0  0  0  0  0  0  0  0  0  0
    4.2256   -1.3952    0.2381 C   0  0  0  0  0  0  0  0  0  0  0  0
    4.9864   -2.5791    0.1942 N   0  0  0  0  0  0  0  0  0  0  0  0
    4.7556   -3.6728    1.1520 C   0  0  0  0  0  0  0  0  0  0  0  0
    6.1525   -4.1009    1.5802 C   0  0  0  0  0  0  0  0  0  0  0  0
    6.9589   -3.9118    0.3105 C   0  0  0  0  0  0  0  0  0  0  0  0
    6.3802   -2.6304   -0.2811 C   0  0  0  0  0  0  0  0  0  0  0  0
    4.8881   -0.1324    0.7239 C   0  0  0  0  0  0  0  0  0  0  0  0
    5.9074   -0.1694    1.4106 O   0  0  0  0  0  0  0  0  0  0  0  0
    4.2619    1.1617    0.3430 C   0  0  0  0  0  0  0  0  0  0  0  0
    5.3192    2.5379    0.3995 Cl  0  0  0  0  0  0  0  0  0  0  0  0
    2.9784    1.2610   -0.0438 C   0  0  0  0  0  0  0  0  0  0  0  0
    2.3265    2.4519   -0.4197 N   0  0  0  0  0  0  0  0  0  0  0  0
    2.1516    3.5738    0.5152 C   0  0  0  0  0  0  0  0  0  0  0  0
    0.7409    4.0761    0.2393 C   0  0  0  0  0  0  0  0  0  0  0  0
    0.6030    3.8642   -1.2558 C   0  0  0  0  0  0  0  0  0  0  0  0
    1.3104    2.5316   -1.4824 C   0  0  0  0  0  0  0  0  0  0  0  0
    4.2439   -4.4967    0.6413 H   0  0  0  0  0  0  0  0  0  0  0  0
    4.1552   -3.3656    2.0149 H   0  0  0  0  0  0  0  0  0  0  0  0
    6.1816   -5.1283    1.9534 H   0  0  0  0  0  0  0  0  0  0  0  0
    6.5270   -3.4359    2.3677 H   0  0  0  0  0  0  0  0  0  0  0  0
    6.7949   -4.7538   -0.3721 H   0  0  0  0  0  0  0  0  0  0  0  0
    8.0333   -3.8314    0.5003 H   0  0  0  0  0  0  0  0  0  0  0  0
    6.4044   -2.6632   -1.3756 H   0  0  0  0  0  0  0  0  0  0  0  0
    6.9724   -1.7722    0.0450 H   0  0  0  0  0  0  0  0  0  0  0  0
    2.8841    4.3562    0.2864 H   0  0  0  0  0  0  0  0  0  0  0  0
    2.2655    3.2766    1.5633 H   0  0  0  0  0  0  0  0  0  0  0  0
    0.6000    5.1191    0.5362 H   0  0  0  0  0  0  0  0  0  0  0  0
    0.0089    3.4612    0.7768 H   0  0  0  0  0  0  0  0  0  0  0  0
    1.1152    4.6653   -1.8013 H   0  0  0  0  0  0  0  0  0  0  0  0
   -0.4400    3.8398   -1.5848 H   0  0  0  0  0  0  0  0  0  0  0  0
    1.7886    2.5080   -2.4676 H   0  0  0  0  0  0  0  0  0  0  0  0
    0.5829    1.7187   -1.4352 H   0  0  0  0  0  0  0  0  0  0  0  0
  1  2  2  0  0  0  0
  2  3  1  0  0  0  0
  2 15  1  0  0  0  0
  3  4  1  0  0  0  0
  3  5  2  0  0  0  0
  5  6  1  0  0  0  0
  5 11  1  0  0  0  0
  6  7  1  0  0  0  0
  6 10  1  0  0  0  0
  7  8  1  0  0  0  0
  7 21  1  0  0  0  0
  7 22  1  0  0  0  0
  8  9  1  0  0  0  0
  8 23  1  0  0  0  0
  8 24  1  0  0  0  0
  9 10  1  0  0  0  0
  9 25  1  0  0  0  0
  9 26  1  0  0  0  0
 10 27  1  0  0  0  0
 10 28  1  0  0  0  0
 11 12  2  0  0  0  0
 11 13  1  0  0  0  0
 13 14  1  0  0  0  0
 13 15  2  0  0  0  0
 15 16  1  0  0  0  0
 16 17  1  0  0  0  0
 16 20  1  0  0  0  0
 17 18  1  0  0  0  0
 17 29  1  0  0  0  0
 17 30  1  0  0  0  0
 18 19  1  0  0  0  0
 18 31  1  0  0  0  0
 18 32  1  0  0  0  0
 19 20  1  0  0  0  0
 19 33  1  0  0  0  0
 19 34  1  0  0  0  0
 20 35  1  0  0  0  0
 20 36  1  0  0  0  0
M  END
>  <Energy>
141.907

$$$$

 OpenBabel04232614443D

 40 42  0  0  1  0  0  0  0  0999 V2000
    1.3019    0.2392    0.4989 C   0  0  0  0  0  0  0  0  0  0  0  0
    2.7767    0.1978    0.3599 C   0  0  0  0  0  0  0  0  0  0  0  0
    3.4075   -0.9747    0.5447 N   0  0  0  0  0  0  0  0  0  0  0  0
    4.7037   -0.6870    0.3201 N   0  0  0  0  0  0  0  0  0  0  0  0
    5.6798   -1.7442    0.3391 C   0  0  0  0  0  0  0  0  0  0  0  0
    4.9108    0.6377    0.1158 C   0  0  0  0  0  0  0  0  0  0  0  0
    6.4947    1.2535   -0.0421 Cl  0  0  0  0  0  0  0  0  0  0  0  0
    3.6842    1.2663    0.0887 C   0  0  0  0  0  0  0  0  0  0  0  0
    3.4804    2.7255   -0.1055 C   0  0  3  0  0  0  0  0  0  0  0  0
    2.8634    3.4313    1.1016 C   0  0  0  0  0  0  0  0  0  0  0  0
    2.6353    4.8290    0.5515 C   0  0  0  0  0  0  0  0  0  0  0  0
    2.2370    4.5769   -0.8991 C   0  0  0  0  0  0  0  0  0  0  0  0
    2.6565    3.2114   -1.2201 N   0  0  0  0  0  0  0  0  0  0  0  0
    2.7538    2.6689   -2.5043 C   0  0  0  0  0  0  0  0  0  0  0  0
    3.2127    1.5472   -2.7142 O   0  0  0  0  0  0  0  0  0  0  0  0
    2.3961    3.4773   -3.7201 C   0  0  0  0  0  0  0  0  0  0  0  0
    3.1679    3.2544   -4.8731 C   0  0  0  0  0  0  0  0  0  0  0  0
    3.0255    4.0615   -6.0038 C   0  0  0  0  0  0  0  0  0  0  0  0
    2.1127    5.1155   -5.9926 C   0  0  0  0  0  0  0  0  0  0  0  0
    1.2904    5.3098   -4.8809 C   0  0  0  0  0  0  0  0  0  0  0  0
    0.3769    6.4166   -4.8455 C   0  0  0  0  0  0  0  0  0  0  0  0
   -0.3402    7.3278   -4.7887 N   0  0  0  0  0  0  0  0  0  0  0  0
    1.3984    4.4572   -3.7716 C   0  0  0  0  0  0  0  0  0  0  0  0
    0.8613   -0.7477    0.3190 H   0  0  0  0  0  0  0  0  0  0  0  0
    0.8546    0.9372   -0.2150 H   0  0  0  0  0  0  0  0  0  0  0  0
    1.0246    0.5473    1.5124 H   0  0  0  0  0  0  0  0  0  0  0  0
    5.1769   -2.7094    0.2861 H   0  0  0  0  0  0  0  0  0  0  0  0
    6.2563   -1.6748    1.2664 H   0  0  0  0  0  0  0  0  0  0  0  0
    6.3401   -1.6361   -0.5302 H   0  0  0  0  0  0  0  0  0  0  0  0
    4.4647    3.1805   -0.2886 H   0  0  0  0  0  0  0  0  0  0  0  0
    3.5088    3.4253    1.9844 H   0  0  0  0  0  0  0  0  0  0  0  0
    1.8993    2.9859    1.3780 H   0  0  0  0  0  0  0  0  0  0  0  0
    3.5678    5.4048    0.5906 H   0  0  0  0  0  0  0  0  0  0  0  0
    1.8717    5.3879    1.0993 H   0  0  0  0  0  0  0  0  0  0  0  0
    2.7315    5.2948   -1.5622 H   0  0  0  0  0  0  0  0  0  0  0  0
    1.1515    4.6457   -0.9948 H   0  0  0  0  0  0  0  0  0  0  0  0
    3.9058    2.4514   -4.8877 H   0  0  0  0  0  0  0  0  0  0  0  0
    3.6449    3.8834   -6.8790 H   0  0  0  0  0  0  0  0  0  0  0  0
    2.0509    5.7795   -6.8536 H   0  0  0  0  0  0  0  0  0  0  0  0
    0.6980    4.5840   -2.9550 H   0  0  0  0  0  0  0  0  0  0  0  0
  1  2  1  0  0  0  0
  1 24  1  0  0  0  0
  1 25  1  0  0  0  0
  1 26  1  0  0  0  0
  2  3  2  0  0  0  0
  2  8  1  0  0  0  0
  3  4  1  0  0  0  0
  4  5  1  0  0  0  0
  4  6  1  0  0  0  0
  5 27  1  0  0  0  0
  5 28  1  0  0  0  0
  5 29  1  0  0  0  0
  6  7  1  0  0  0  0
  6  8  2  0  0  0  0
  8  9  1  0  0  0  0
  9 10  1  0  0  0  0
  9 13  1  0  0  0  0
  9 30  1  0  0  0  0
 10 11  1  0  0  0  0
 10 31  1  0  0  0  0
 10 32  1  0  0  0  0
 11 12  1  0  0  0  0
 11 33  1  0  0  0  0
 11 34  1  0  0  0  0
 12 13  1  0  0  0  0
 12 35  1  0  0  0  0
 12 36  1  0  0  0  0
 13 14  1  0  0  0  0
 14 15  2  0  0  0  0
 14 16  1  0  0  0  0
 16 17  1  0  0  0  0
 16 23  2  0  0  0  0
 17 18  2  0  0  0  0
 17 37  1  0  0  0  0
 18 19  1  0  0  0  0
 18 38  1  0  0  0  0
 19 20  2  0  0  0  0
 19 39  1  0  0  0  0
 20 21  1  0  0  0  0
 20 23  1  0  0  0  0
 21 22  3  0  0  0  0
 23 40  1  0  0  0  0
M  END
>  <Energy>
55.2778

$$$$

 OpenBabel04232614443D

 35 37  0  0  0  0  0  0  0  0999 V2000
    1.0798    0.6830    0.1042 C   0  0  0  0  0  0  0  0  0  0  0  0
    2.5131    0.2734    0.0819 C   0  0  0  0  0  0  0  0  0  0  0  0
    2.9748   -1.4144    0.0166 S   0  0  0  0  0  0  0  0  0  0  0  0
    4.7098   -0.9957   -0.1273 C   0  0  0  0  0  0  0  0  0  0  0  0
    5.6889   -1.8186   -0.3140 N   0  0  0  0  0  0  0  0  0  0  0  0
    5.4554   -3.1557   -0.5024 C   0  0  0  0  0  0  0  0  0  0  0  0
    4.5698   -3.6312   -1.2057 O   0  0  0  0  0  0  0  0  0  0  0  0
    6.4669   -3.9801    0.1367 C   0  0  0  0  0  0  0  0  0  0  0  0
    6.5840   -5.3592    0.1960 C   0  0  0  0  0  0  0  0  0  0  0  0
    7.7843   -5.6434    0.8902 C   0  0  0  0  0  0  0  0  0  0  0  0
    8.3278   -4.4260    1.2225 C   0  0  0  0  0  0  0  0  0  0  0  0
    7.5376   -3.4126    0.7833 O   0  0  0  0  0  0  0  0  0  0  0  0
    4.8274    0.3885    0.0060 N   0  0  0  0  0  0  0  0  0  0  0  0
    6.1222    1.0448   -0.0535 C   0  0  0  0  0  0  0  0  0  0  0  0
    3.6036    1.0654    0.0715 C   0  0  0  0  0  0  0  0  0  0  0  0
    3.5225    2.5292    0.0864 C   0  0  0  0  0  0  0  0  0  0  0  0
    3.5069    3.2251    1.3019 C   0  0  0  0  0  0  0  0  0  0  0  0
    3.3651    4.6153    1.3151 C   0  0  0  0  0  0  0  0  0  0  0  0
    3.2352    5.3100    0.1137 C   0  0  0  0  0  0  0  0  0  0  0  0
    3.0367    7.0185    0.1321 Cl  0  0  0  0  0  0  0  0  0  0  0  0
    3.2543    4.6286   -1.1021 C   0  0  0  0  0  0  0  0  0  0  0  0
    3.3992    3.2390   -1.1158 C   0  0  0  0  0  0  0  0  0  0  0  0
    0.4074   -0.1793    0.0468 H   0  0  0  0  0  0  0  0  0  0  0  0
    0.8481    1.3303   -0.7472 H   0  0  0  0  0  0  0  0  0  0  0  0
    0.8462    1.2224    1.0277 H   0  0  0  0  0  0  0  0  0  0  0  0
    5.8847   -6.0640   -0.2325 H   0  0  0  0  0  0  0  0  0  0  0  0
    8.2047   -6.6145    1.1122 H   0  0  0  0  0  0  0  0  0  0  0  0
    9.2283   -4.1251    1.7397 H   0  0  0  0  0  0  0  0  0  0  0  0
    6.9523    0.3373    0.0438 H   0  0  0  0  0  0  0  0  0  0  0  0
    6.2288    1.7669    0.7633 H   0  0  0  0  0  0  0  0  0  0  0  0
    6.2412    1.5713   -1.0061 H   0  0  0  0  0  0  0  0  0  0  0  0
    3.5942    2.6869    2.2436 H   0  0  0  0  0  0  0  0  0  0  0  0
    3.3463    5.1465    2.2633 H   0  0  0  0  0  0  0  0  0  0  0  0
    3.1467    5.1693   -2.0388 H   0  0  0  0  0  0  0  0  0  0  0  0
    3.3991    2.7110   -2.0673 H   0  0  0  0  0  0  0  0  0  0  0  0
  1  2  1  0  0  0  0
  1 23  1  0  0  0  0
  1 24  1  0  0  0  0
  1 25  1  0  0  0  0
  2  3  1  0  0  0  0
  2 15  2  0  0  0  0
  3  4  1  0  0  0  0
  4  5  2  0  0  0  0
  4 13  1  0  0  0  0
  5  6  1  0  0  0  0
  6  7  2  0  0  0  0
  6  8  1  0  0  0  0
  8  9  2  0  0  0  0
  8 12  1  0  0  0  0
  9 10  1  0  0  0  0
  9 26  1  0  0  0  0
 10 11  2  0  0  0  0
 10 27  1  0  0  0  0
 11 12  1  0  0  0  0
 11 28  1  0  0  0  0
 13 14  1  0  0  0  0
 13 15  1  0  0  0  0
 14 29  1  0  0  0  0
 14 30  1  0  0  0  0
 14 31  1  0  0  0  0
 15 16  1  0  0  0  0
 16 17  1  0  0  0  0
 16 22  2  0  0  0  0
 17 18  2  0  0  0  0
 17 32  1  0  0  0  0
 18 19  1  0  0  0  0
 18 33  1  0  0  0  0
 19 20  1  0  0  0  0
 19 21  2  0  0  0  0
 21 22  1  0  0  0  0
 21 34  1  0  0  0  0
 22 35  1  0  0  0  0
M  END
>  <Energy>
27.6515

$$$$

 OpenBabel04232614443D

 38 41  0  0  1  0  0  0  0  0999 V2000
    1.0814   -0.1472    0.1396 O   0  0  0  0  0  0  0  0  0  0  0  0
    2.2923   -0.1449    0.0406 C   0  0  0  0  0  0  0  0  0  0  0  0
    3.0891   -1.2502    0.0454 O   0  0  0  0  0  0  0  0  0  0  0  0
    4.4617   -0.8466   -0.0245 C   0  0  0  0  0  0  0  0  0  0  0  0
    4.3932    0.6304   -0.0691 C   0  0  0  0  0  0  0  0  0  0  0  0
    3.1352    1.0424   -0.0566 C   0  0  0  0  0  0  0  0  0  0  0  0
    2.6767    2.4427   -0.0804 C   0  0  3  0  0  0  0  0  0  0  0  0
    1.8787    2.7420   -1.3427 C   0  0  0  0  0  0  0  0  0  0  0  0
    0.5407    3.1601   -1.2453 C   0  0  0  0  0  0  0  0  0  0  0  0
   -0.2034    3.4169   -2.3976 C   0  0  0  0  0  0  0  0  0  0  0  0
    0.3841    3.2526   -3.6453 C   0  0  0  0  0  0  0  0  0  0  0  0
   -0.3338    3.4939   -4.7501 F   0  0  0  0  0  0  0  0  0  0  0  0
    1.7044    2.8406   -3.7663 C   0  0  0  0  0  0  0  0  0  0  0  0
    2.4538    2.5878   -2.6181 C   0  0  0  0  0  0  0  0  0  0  0  0
    3.8423    3.4311    0.0759 C   0  0  0  0  0  0  0  0  0  0  0  0
    5.2687    2.8880    0.0759 C   0  0  0  0  0  0  0  0  0  0  0  0
    6.1947    3.7059    0.1581 O   0  0  0  0  0  0  0  0  0  0  0  0
    5.4630    1.5014   -0.0293 N   0  0  0  0  0  0  0  0  0  0  0  0
    6.8060    1.0160    0.0076 C   0  0  0  0  0  0  0  0  0  0  0  0
    7.6185    1.2870    1.1153 C   0  0  0  0  0  0  0  0  0  0  0  0
    8.9151    0.7757    1.1786 C   0  0  0  0  0  0  0  0  0  0  0  0
    9.4155    0.0132    0.1247 C   0  0  0  0  0  0  0  0  0  0  0  0
    8.6208   -0.2405   -0.9928 C   0  0  0  0  0  0  0  0  0  0  0  0
    7.3147    0.2506   -1.0490 C   0  0  0  0  0  0  0  0  0  0  0  0
    4.8974   -1.2801   -0.9287 H   0  0  0  0  0  0  0  0  0  0  0  0
    4.9816   -1.2209    0.8620 H   0  0  0  0  0  0  0  0  0  0  0  0
    2.0157    2.5906    0.7854 H   0  0  0  0  0  0  0  0  0  0  0  0
    0.0643    3.2771   -0.2740 H   0  0  0  0  0  0  0  0  0  0  0  0
   -1.2386    3.7348   -2.3283 H   0  0  0  0  0  0  0  0  0  0  0  0
    2.1410    2.7150   -4.7513 H   0  0  0  0  0  0  0  0  0  0  0  0
    3.4866    2.2639   -2.7281 H   0  0  0  0  0  0  0  0  0  0  0  0
    3.7231    3.9601    1.0308 H   0  0  0  0  0  0  0  0  0  0  0  0
    3.8090    4.2057   -0.7029 H   0  0  0  0  0  0  0  0  0  0  0  0
    7.2423    1.8829    1.9433 H   0  0  0  0  0  0  0  0  0  0  0  0
    9.5353    0.9793    2.0478 H   0  0  0  0  0  0  0  0  0  0  0  0
   10.4311   -0.3726    0.1700 H   0  0  0  0  0  0  0  0  0  0  0  0
    9.0247   -0.8112   -1.8254 H   0  0  0  0  0  0  0  0  0  0  0  0
    6.7210    0.0712   -1.9412 H   0  0  0  0  0  0  0  0  0  0  0  0
  1  2  2  0  0  0  0
  2  3  1  0  0  0  0
  2  6  1  0  0  0  0
  3  4  1  0  0  0  0
  4  5  1  0  0  0  0
  4 25  1  0  0  0  0
  4 26  1  0  0  0  0
  5  6  2  0  0  0  0
  5 18  1  0  0  0  0
  6  7  1  0  0  0  0
  7  8  1  0  0  0  0
  7 15  1  0  0  0  0
  7 27  1  0  0  0  0
  8  9  1  0  0  0  0
  8 14  2  0  0  0  0
  9 10  2  0  0  0  0
  9 28  1  0  0  0  0
 10 11  1  0  0  0  0
 10 29  1  0  0  0  0
 11 12  1  0  0  0  0
 11 13  2  0  0  0  0
 13 14  1  0  0  0  0
 13 30  1  0  0  0  0
 14 31  1  0  0  0  0
 15 16  1  0  0  0  0
 15 32  1  0  0  0  0
 15 33  1  0  0  0  0
 16 17  2  0  0  0  0
 16 18  1  0  0  0  0
 18 19  1  0  0  0  0
 19 20  1  0  0  0  0
 19 24  2  0  0  0  0
 20 21  2  0  0  0  0
 20 34  1  0  0  0  0
 21 22  1  0  0  0  0
 21 35  1  0  0  0  0
 22 23  2  0  0  0  0
 22 36  1  0  0  0  0
 23 24  1  0  0  0  0
 23 37  1  0  0  0  0
 24 38  1  0  0  0  0
M  END
>  <Energy>
42.1357

$$$$

 OpenBabel04232614443D

 43 45  0  0  1  0  0  0  0  0999 V2000
    1.7876    0.6179   -1.2508 O   0  0  0  0  0  0  0  0  0  0  0  0
    2.3711   -0.0040   -0.3558 C   0  0  0  0  0  0  0  0  0  0  0  0
    2.6624    0.7114    0.9720 C   0  0  3  0  0  0  0  0  0  0  0  0
    2.1207    2.1635    0.9189 C   0  0  0  0  0  0  0  0  0  0  0  0
    3.0774    2.9746    0.0375 C   0  0  0  0  0  0  0  0  0  0  0  0
    4.6892    2.2724    0.3323 S   0  0  0  0  0  0  0  0  0  0  0  0
    5.2243    1.7401   -0.9028 O   0  0  0  0  0  0  0  0  0  0  0  0
    5.4528    3.1627    1.1844 O   0  0  0  0  0  0  0  0  0  0  0  0
    4.1344    0.9017    1.3211 C   0  0  0  0  0  0  0  0  0  0  0  0
    2.6728   -1.3537   -0.5127 N   0  0  0  0  0  0  0  0  0  0  0  0
    2.3946   -1.8957   -1.8533 C   0  0  0  0  0  0  0  0  0  0  0  0
    2.2398   -3.4134   -1.8792 C   0  0  0  0  0  0  0  0  0  0  0  0
    3.4664   -4.0465   -1.2691 C   0  0  0  0  0  0  0  0  0  0  0  0
    4.3013   -4.8924   -1.9013 C   0  0  0  0  0  0  0  0  0  0  0  0
    4.0473   -5.3747   -3.2603 C   0  0  0  0  0  0  0  0  0  0  0  0
    4.4618   -4.6448   -4.3827 C   0  0  0  0  0  0  0  0  0  0  0  0
    4.0964   -5.0627   -5.6668 C   0  0  0  0  0  0  0  0  0  0  0  0
    3.3196   -6.2094   -5.8311 C   0  0  0  0  0  0  0  0  0  0  0  0
    2.9255   -6.9360   -4.7137 C   0  0  0  0  0  0  0  0  0  0  0  0
    2.1691   -8.0304   -4.8703 F   0  0  0  0  0  0  0  0  0  0  0  0
    3.2833   -6.5326   -3.4333 C   0  0  0  0  0  0  0  0  0  0  0  0
    3.6643   -3.5945    0.1558 C   0  0  0  0  0  0  0  0  0  0  0  0
    3.6971   -2.0625    0.2673 C   0  0  0  0  0  0  0  0  0  0  0  0
    2.1413    0.1532    1.7588 H   0  0  0  0  0  0  0  0  0  0  0  0
    2.1188    2.5854    1.9320 H   0  0  0  0  0  0  0  0  0  0  0  0
    1.0942    2.2273    0.5420 H   0  0  0  0  0  0  0  0  0  0  0  0
    3.0852    4.0329    0.3047 H   0  0  0  0  0  0  0  0  0  0  0  0
    2.8542    2.8686   -1.0275 H   0  0  0  0  0  0  0  0  0  0  0  0
    4.2323    1.2008    2.3709 H   0  0  0  0  0  0  0  0  0  0  0  0
    4.7968    0.0608    1.1374 H   0  0  0  0  0  0  0  0  0  0  0  0
    3.2186   -1.5791   -2.5063 H   0  0  0  0  0  0  0  0  0  0  0  0
    1.4753   -1.4519   -2.2517 H   0  0  0  0  0  0  0  0  0  0  0  0
    2.0558   -3.7322   -2.9091 H   0  0  0  0  0  0  0  0  0  0  0  0
    1.3594   -3.7132   -1.2974 H   0  0  0  0  0  0  0  0  0  0  0  0
    5.1822   -5.2997   -1.4120 H   0  0  0  0  0  0  0  0  0  0  0  0
    5.0450   -3.7339   -4.2633 H   0  0  0  0  0  0  0  0  0  0  0  0
    4.4019   -4.4851   -6.5358 H   0  0  0  0  0  0  0  0  0  0  0  0
    3.0107   -6.5364   -6.8189 H   0  0  0  0  0  0  0  0  0  0  0  0
    2.9367   -7.1069   -2.5799 H   0  0  0  0  0  0  0  0  0  0  0  0
    4.5807   -4.0112    0.5901 H   0  0  0  0  0  0  0  0  0  0  0  0
    2.8291   -3.9803    0.7544 H   0  0  0  0  0  0  0  0  0  0  0  0
    4.6686   -1.7046   -0.0935 H   0  0  0  0  0  0  0  0  0  0  0  0
    3.5983   -1.7888    1.3221 H   0  0  0  0  0  0  0  0  0  0  0  0
  1  2  2  0  0  0  0
  2  3  1  0  0  0  0
  2 10  1  0  0  0  0
  3  4  1  0  0  0  0
  3  9  1  0  0  0  0
  3 24  1  0  0  0  0
  4  5  1  0  0  0  0
  4 25  1  0  0  0  0
  4 26  1  0  0  0  0
  5  6  1  0  0  0  0
  5 27  1  0  0  0  0
  5 28  1  0  0  0  0
  6  7  2  0  0  0  0
  6  8  2  0  0  0  0
  6  9  1  0  0  0  0
  9 29  1  0  0  0  0
  9 30  1  0  0  0  0
 10 11  1  0  0  0  0
 10 23  1  0  0  0  0
 11 12  1  0  0  0  0
 11 31  1  0  0  0  0
 11 32  1  0  0  0  0
 12 13  1  0  0  0  0
 12 33  1  0  0  0  0
 12 34  1  0  0  0  0
 13 14  2  3  0  0  0
 13 22  1  0  0  0  0
 14 15  1  0  0  0  0
 14 35  1  0  0  0  0
 15 16  1  0  0  0  0
 15 21  2  0  0  0  0
 16 17  2  0  0  0  0
 16 36  1  0  0  0  0
 17 18  1  0  0  0  0
 17 37  1  0  0  0  0
 18 19  2  0  0  0  0
 18 38  1  0  0  0  0
 19 20  1  0  0  0  0
 19 21  1  0  0  0  0
 21 39  1  0  0  0  0
 22 23  1  0  0  0  0
 22 40  1  0  0  0  0
 22 41  1  0  0  0  0
 23 42  1  0  0  0  0
 23 43  1  0  0  0  0
M  END
>  <Energy>
21.0482

$$$$

 OpenBabel04232614443D

 40 43  0  0  0  0  0  0  0  0999 V2000
    0.9143   -0.1503    0.0935 C   0  0  0  0  0  0  0  0  0  0  0  0
    2.3889   -0.0539    0.3898 C   0  0  0  0  0  0  0  0  0  0  0  0
    2.7939    0.6407    1.3145 O   0  0  0  0  0  0  0  0  0  0  0  0
    3.1411   -0.8204   -0.4688 N   0  0  0  0  0  0  0  0  0  0  0  0
    4.5303   -0.9477   -0.4225 C   0  0  0  0  0  0  0  0  0  0  0  0
    5.3102   -0.4287    0.5741 N   0  0  0  0  0  0  0  0  0  0  0  0
    6.6716   -0.5433    0.5882 C   0  0  0  0  0  0  0  0  0  0  0  0
    7.3486    0.0365    1.6487 C   0  0  0  0  0  0  0  0  0  0  0  0
    8.7457    0.0052    1.7498 C   0  0  0  0  0  0  0  0  0  0  0  0
    9.5125   -0.6253    0.7727 C   0  0  0  0  0  0  0  0  0  0  0  0
    8.8841   -1.2416   -0.3050 C   0  0  0  0  0  0  0  0  0  0  0  0
    7.4712   -1.1994   -0.3930 C   0  0  0  0  0  0  0  0  0  0  0  0
    6.6396   -1.7530   -1.3934 C   0  0  0  0  0  0  0  0  0  0  0  0
    7.0158   -2.4847   -2.4881 C   0  0  0  0  0  0  0  0  0  0  0  0
    5.8473   -2.8070   -3.1505 N   0  0  0  0  0  0  0  0  0  0  0  0
    5.6929   -3.6236   -4.3086 C   0  0  0  0  0  0  0  0  0  0  0  0
    4.4322   -3.7172   -4.9181 C   0  0  0  0  0  0  0  0  0  0  0  0
    4.2452   -4.5395   -6.0292 C   0  0  0  0  0  0  0  0  0  0  0  0
    5.3076   -5.2896   -6.5296 C   0  0  0  0  0  0  0  0  0  0  0  0
    6.5701   -5.2164   -5.9301 C   0  0  0  0  0  0  0  0  0  0  0  0
    7.7075   -6.0512   -6.4432 C   0  0  0  0  0  0  0  0  0  0  0  0
    6.7646   -4.3641   -4.8296 C   0  0  0  0  0  0  0  0  0  0  0  0
    4.7509   -2.2644   -2.5469 N   0  0  0  0  0  0  0  0  0  0  0  0
    5.2140   -1.6472   -1.4442 C   0  0  0  0  0  0  0  0  0  0  0  0
    0.3956    0.6956    0.5542 H   0  0  0  0  0  0  0  0  0  0  0  0
    0.5216   -1.0827    0.5071 H   0  0  0  0  0  0  0  0  0  0  0  0
    0.7321   -0.1158   -0.9843 H   0  0  0  0  0  0  0  0  0  0  0  0
    2.6987   -1.2983   -1.2441 H   0  0  0  0  0  0  0  0  0  0  0  0
    6.7698    0.5369    2.4231 H   0  0  0  0  0  0  0  0  0  0  0  0
    9.2332    0.4827    2.5978 H   0  0  0  0  0  0  0  0  0  0  0  0
   10.5965   -0.6352    0.8539 H   0  0  0  0  0  0  0  0  0  0  0  0
    9.4756   -1.7326   -1.0691 H   0  0  0  0  0  0  0  0  0  0  0  0
    7.9840   -2.7957   -2.8485 H   0  0  0  0  0  0  0  0  0  0  0  0
    3.5824   -3.1513   -4.5419 H   0  0  0  0  0  0  0  0  0  0  0  0
    3.2663   -4.6032   -6.4975 H   0  0  0  0  0  0  0  0  0  0  0  0
    5.1391   -5.9397   -7.3857 H   0  0  0  0  0  0  0  0  0  0  0  0
    7.3806   -6.7294   -7.2386 H   0  0  0  0  0  0  0  0  0  0  0  0
    8.1159   -6.6657   -5.6339 H   0  0  0  0  0  0  0  0  0  0  0  0
    8.4979   -5.4105   -6.8453 H   0  0  0  0  0  0  0  0  0  0  0  0
    7.7528   -4.3291   -4.3803 H   0  0  0  0  0  0  0  0  0  0  0  0
  1  2  1  0  0  0  0
  1 25  1  0  0  0  0
  1 26  1  0  0  0  0
  1 27  1  0  0  0  0
  2  3  2  0  0  0  0
  2  4  1  0  0  0  0
  4  5  1  0  0  0  0
  4 28  1  0  0  0  0
  5  6  2  0  0  0  0
  5 24  1  0  0  0  0
  6  7  1  0  0  0  0
  7  8  1  0  0  0  0
  7 12  2  0  0  0  0
  8  9  2  0  0  0  0
  8 29  1  0  0  0  0
  9 10  1  0  0  0  0
  9 30  1  0  0  0  0
 10 11  2  0  0  0  0
 10 31  1  0  0  0  0
 11 12  1  0  0  0  0
 11 32  1  0  0  0  0
 12 13  1  0  0  0  0
 13 14  2  0  0  0  0
 13 24  1  0  0  0  0
 14 15  1  0  0  0  0
 14 33  1  0  0  0  0
 15 16  1  0  0  0  0
 15 23  1  0  0  0  0
 16 17  1  0  0  0  0
 16 22  2  0  0  0  0
 17 18  2  0  0  0  0
 17 34  1  0  0  0  0
 18 19  1  0  0  0  0
 18 35  1  0  0  0  0
 19 20  2  0  0  0  0
 19 36  1  0  0  0  0
 20 21  1  0  0  0  0
 20 22  1  0  0  0  0
 21 37  1  0  0  0  0
 21 38  1  0  0  0  0
 21 39  1  0  0  0  0
 22 40  1  0  0  0  0
 23 24  2  0  0  0  0
M  END
>  <Energy>
66.2542

$$$$

 OpenBabel04232614443D

 43 45  0  0  0  0  0  0  0  0999 V2000
    2.5788   -0.1193    0.3531 C   0  0  0  0  0  0  0  0  0  0  0  0
    1.0782   -0.1707    0.2345 C   0  0  0  0  0  0  0  0  0  0  0  0
    0.4195    1.0714    0.3391 C   0  0  0  0  0  0  0  0  0  0  0  0
   -0.9210    1.2379   -0.0224 C   0  0  0  0  0  0  0  0  0  0  0  0
   -1.5560    2.5638   -0.0215 C   0  0  0  0  0  0  0  0  0  0  0  0
   -1.0084    3.7534   -0.3200 C   0  0  0  0  0  0  0  0  0  0  0  0
   -1.7096    5.0305    0.0369 C   0  0  0  0  0  0  0  0  0  0  0  0
   -2.8587    5.1363    0.4196 O   0  0  0  0  0  0  0  0  0  0  0  0
   -0.7759    6.0171   -0.1771 N   0  0  0  0  0  0  0  0  0  0  0  0
   -1.0657    7.4192    0.0414 C   0  0  0  0  0  0  0  0  0  0  0  0
    0.4050    5.4957   -0.6920 C   0  0  0  0  0  0  0  0  0  0  0  0
    1.7996    6.3543   -1.0219 S   0  0  0  0  0  0  0  0  0  0  0  0
    0.2194    4.1044   -0.8585 N   0  0  0  0  0  0  0  0  0  0  0  0
    0.8777    3.3440   -1.9154 C   0  0  0  0  0  0  0  0  0  0  0  0
   -1.6522    0.0893   -0.2935 C   0  0  0  0  0  0  0  0  0  0  0  0
   -1.0251   -1.1693   -0.2934 C   0  0  0  0  0  0  0  0  0  0  0  0
    0.3552   -1.3454   -0.0619 C   0  0  0  0  0  0  0  0  0  0  0  0
    0.9219   -2.6005   -0.1271 N   0  0  0  0  0  0  0  0  0  0  0  0
    2.0218   -3.0623    0.7186 C   0  0  0  0  0  0  0  0  0  0  0  0
    2.1028   -4.5729    0.4937 C   0  0  0  0  0  0  0  0  0  0  0  0
    0.8080   -4.9399   -0.2073 C   0  0  0  0  0  0  0  0  0  0  0  0
    0.4361   -3.6809   -0.9779 C   0  0  0  0  0  0  0  0  0  0  0  0
    2.9496    0.9116    0.2975 H   0  0  0  0  0  0  0  0  0  0  0  0
    3.0415   -0.6419   -0.4906 H   0  0  0  0  0  0  0  0  0  0  0  0
    2.9115   -0.5355    1.3064 H   0  0  0  0  0  0  0  0  0  0  0  0
    0.9954    1.9436    0.6449 H   0  0  0  0  0  0  0  0  0  0  0  0
   -2.5726    2.5565    0.3782 H   0  0  0  0  0  0  0  0  0  0  0  0
   -2.1399    7.5818    0.1572 H   0  0  0  0  0  0  0  0  0  0  0  0
   -0.7031    8.0081   -0.8070 H   0  0  0  0  0  0  0  0  0  0  0  0
   -0.5468    7.7465    0.9468 H   0  0  0  0  0  0  0  0  0  0  0  0
    1.7550    3.8677   -2.3006 H   0  0  0  0  0  0  0  0  0  0  0  0
    0.1715    3.2326   -2.7449 H   0  0  0  0  0  0  0  0  0  0  0  0
    1.2071    2.3641   -1.5850 H   0  0  0  0  0  0  0  0  0  0  0  0
   -2.7183    0.1444   -0.4975 H   0  0  0  0  0  0  0  0  0  0  0  0
   -1.6668   -2.0310   -0.4576 H   0  0  0  0  0  0  0  0  0  0  0  0
    1.8361   -2.8346    1.7736 H   0  0  0  0  0  0  0  0  0  0  0  0
    2.9813   -2.6340    0.4187 H   0  0  0  0  0  0  0  0  0  0  0  0
    2.2326   -5.1182    1.4339 H   0  0  0  0  0  0  0  0  0  0  0  0
    2.9614   -4.8107   -0.1453 H   0  0  0  0  0  0  0  0  0  0  0  0
    0.0352   -5.1686    0.5354 H   0  0  0  0  0  0  0  0  0  0  0  0
    0.9199   -5.8093   -0.8621 H   0  0  0  0  0  0  0  0  0  0  0  0
   -0.6367   -3.6748   -1.1825 H   0  0  0  0  0  0  0  0  0  0  0  0
    0.9669   -3.6426   -1.9366 H   0  0  0  0  0  0  0  0  0  0  0  0
  1  2  1  0  0  0  0
  1 23  1  0  0  0  0
  1 24  1  0  0  0  0
  1 25  1  0  0  0  0
  2  3  1  0  0  0  0
  2 17  2  0  0  0  0
  3  4  2  0  0  0  0
  3 26  1  0  0  0  0
  4  5  1  0  0  0  0
  4 15  1  0  0  0  0
  5  6  2  0  0  0  0
  5 27  1  0  0  0  0
  6  7  1  0  0  0  0
  6 13  1  0  0  0  0
  7  8  2  0  0  0  0
  7  9  1  0  0  0  0
  9 10  1  0  0  0  0
  9 11  1  0  0  0  0
 10 28  1  0  0  0  0
 10 29  1  0  0  0  0
 10 30  1  0  0  0  0
 11 12  2  0  0  0  0
 11 13  1  0  0  0  0
 13 14  1  0  0  0  0
 14 31  1  0  0  0  0
 14 32  1  0  0  0  0
 14 33  1  0  0  0  0
 15 16  2  0  0  0  0
 15 34  1  0  0  0  0
 16 17  1  0  0  0  0
 16 35  1  0  0  0  0
 17 18  1  0  0  0  0
 18 19  1  0  0  0  0
 18 22  1  0  0  0  0
 19 20  1  0  0  0  0
 19 36  1  0  0  0  0
 19 37  1  0  0  0  0
 20 21  1  0  0  0  0
 20 38  1  0  0  0  0
 20 39  1  0  0  0  0
 21 22  1  0  0  0  0
 21 40  1  0  0  0  0
 21 41  1  0  0  0  0
 22 42  1  0  0  0  0
 22 43  1  0  0  0  0
M  END
>  <Energy>
29.0368

$$$$

 OpenBabel04232614443D

 37 40  0  0  0  0  0  0  0  0999 V2000
    1.2244    0.5407    0.4642 N   0  0  0  0  0  0  0  0  0  0  0  0
    2.3859   -0.0901    0.1078 C   0  0  0  0  0  0  0  0  0  0  0  0
    2.6694   -1.1548    0.6597 O   0  0  0  0  0  0  0  0  0  0  0  0
    3.1995    0.5449   -0.9199 C   0  0  0  0  0  0  0  0  0  0  0  0
    2.6978    1.9970   -1.6645 S   0  0  0  0  0  0  0  0  0  0  0  0
    4.0657    2.0359   -2.6691 C   0  0  0  0  0  0  0  0  0  0  0  0
    4.2064    3.0747   -3.5103 N   0  0  0  0  0  0  0  0  0  0  0  0
    5.2969    3.0417   -4.2931 C   0  0  0  0  0  0  0  0  0  0  0  0
    6.2448    2.0141   -4.2872 C   0  0  0  0  0  0  0  0  0  0  0  0
    6.0421    0.9242   -3.4010 C   0  0  0  0  0  0  0  0  0  0  0  0
    6.9470   -0.2324   -3.3662 C   0  0  0  0  0  0  0  0  0  0  0  0
    8.2949   -0.2873   -3.0591 C   0  0  0  0  0  0  0  0  0  0  0  0
    8.8265   -1.6087   -3.1191 C   0  0  0  0  0  0  0  0  0  0  0  0
    7.8653   -2.5336   -3.4551 C   0  0  0  0  0  0  0  0  0  0  0  0
    6.3671   -1.7933   -3.8163 S   0  0  0  0  0  0  0  0  0  0  0  0
    4.9179    0.9526   -2.5131 C   0  0  0  0  0  0  0  0  0  0  0  0
    4.4176    0.1225   -1.4320 C   0  0  0  0  0  0  0  0  0  0  0  0
    5.0507   -0.9650   -0.9336 N   0  0  0  0  0  0  0  0  0  0  0  0
    7.3905    2.0389   -5.2806 C   0  0  0  0  0  0  0  0  0  0  0  0
    7.6815    3.4230   -5.8609 C   0  0  0  0  0  0  0  0  0  0  0  0
    6.3963    4.0795   -6.3341 C   0  0  0  0  0  0  0  0  0  0  0  0
    5.4584    4.2732   -5.1547 C   0  0  0  0  0  0  0  0  0  0  0  0
    0.6389    0.1022    1.1603 H   0  0  0  0  0  0  0  0  0  0  0  0
    0.9327    1.4061    0.0331 H   0  0  0  0  0  0  0  0  0  0  0  0
    8.8785    0.5865   -2.7958 H   0  0  0  0  0  0  0  0  0  0  0  0
    9.8571   -1.8678   -2.9087 H   0  0  0  0  0  0  0  0  0  0  0  0
    7.9779   -3.6066   -3.5361 H   0  0  0  0  0  0  0  0  0  0  0  0
    5.8290   -1.4110   -1.4095 H   0  0  0  0  0  0  0  0  0  0  0  0
    4.5781   -1.5804   -0.2653 H   0  0  0  0  0  0  0  0  0  0  0  0
    7.1450    1.3497   -6.0984 H   0  0  0  0  0  0  0  0  0  0  0  0
    8.3179    1.6930   -4.8193 H   0  0  0  0  0  0  0  0  0  0  0  0
    8.3899    3.3341   -6.6921 H   0  0  0  0  0  0  0  0  0  0  0  0
    8.1587    4.0530   -5.0991 H   0  0  0  0  0  0  0  0  0  0  0  0
    5.9198    3.4565   -7.1000 H   0  0  0  0  0  0  0  0  0  0  0  0
    6.6133    5.0504   -6.7944 H   0  0  0  0  0  0  0  0  0  0  0  0
    4.4765    4.5931   -5.5240 H   0  0  0  0  0  0  0  0  0  0  0  0
    5.8402    5.0751   -4.5134 H   0  0  0  0  0  0  0  0  0  0  0  0
  1  2  1  0  0  0  0
  1 23  1  0  0  0  0
  1 24  1  0  0  0  0
  2  3  2  0  0  0  0
  2  4  1  0  0  0  0
  4  5  1  0  0  0  0
  4 17  2  0  0  0  0
  5  6  1  0  0  0  0
  6  7  1  0  0  0  0
  6 16  2  0  0  0  0
  7  8  2  0  0  0  0
  8  9  1  0  0  0  0
  8 22  1  0  0  0  0
  9 10  2  0  0  0  0
  9 19  1  0  0  0  0
 10 11  1  0  0  0  0
 10 16  1  0  0  0  0
 11 12  2  0  0  0  0
 11 15  1  0  0  0  0
 12 13  1  0  0  0  0
 12 25  1  0  0  0  0
 13 14  2  0  0  0  0
 13 26  1  0  0  0  0
 14 15  1  0  0  0  0
 14 27  1  0  0  0  0
 16 17  1  0  0  0  0
 17 18  1  0  0  0  0
 18 28  1  0  0  0  0
 18 29  1  0  0  0  0
 19 20  1  0  0  0  0
 19 30  1  0  0  0  0
 19 31  1  0  0  0  0
 20 21  1  0  0  0  0
 20 32  1  0  0  0  0
 20 33  1  0  0  0  0
 21 22  1  0  0  0  0
 21 34  1  0  0  0  0
 21 35  1  0  0  0  0
 22 36  1  0  0  0  0
 22 37  1  0  0  0  0
M  END
>  <Energy>
11.9153

$$$$

 OpenBabel04232614443D

 42 45  0  0  0  0  0  0  0  0999 V2000
    1.9588    1.2916    0.5088 C   0  0  0  0  0  0  0  0  0  0  0  0
    3.0999    0.4794    0.2532 O   0  0  0  0  0  0  0  0  0  0  0  0
    3.5028    0.3806   -1.0503 C   0  0  0  0  0  0  0  0  0  0  0  0
    2.9076    1.0284   -2.1371 C   0  0  0  0  0  0  0  0  0  0  0  0
    3.3866    0.8156   -3.4302 C   0  0  0  0  0  0  0  0  0  0  0  0
    4.4573   -0.0505   -3.6224 C   0  0  0  0  0  0  0  0  0  0  0  0
    4.8327   -0.3405   -4.9416 O   0  0  0  0  0  0  0  0  0  0  0  0
    5.6301   -1.4585   -5.1780 C   0  0  0  0  0  0  0  0  0  0  0  0
    5.5820   -2.0412   -6.2512 O   0  0  0  0  0  0  0  0  0  0  0  0
    6.5768   -1.8285   -4.1032 C   0  0  0  0  0  0  0  0  0  0  0  0
    7.7932   -2.6978   -4.2651 C   0  0  0  0  0  0  0  0  0  0  0  0
    8.0774   -3.3914   -3.2794 O   0  0  0  0  0  0  0  0  0  0  0  0
    8.5968   -2.6358   -5.4194 N   0  0  0  0  0  0  0  0  0  0  0  0
    8.3807   -1.6674   -6.5076 C   0  0  0  0  0  0  0  0  0  0  0  0
    9.6605   -1.0345   -7.0149 C   0  0  0  0  0  0  0  0  0  0  0  0
   10.5866   -2.0997   -7.5522 C   0  0  0  0  0  0  0  0  0  0  0  0
   10.6797   -3.2815   -6.6269 C   0  0  0  0  0  0  0  0  0  0  0  0
   11.7703   -4.1542   -6.8218 C   0  0  0  0  0  0  0  0  0  0  0  0
   11.9300   -5.2859   -6.0330 C   0  0  0  0  0  0  0  0  0  0  0  0
   10.9882   -5.5679   -5.0570 C   0  0  0  0  0  0  0  0  0  0  0  0
    9.8949   -4.7139   -4.8650 C   0  0  0  0  0  0  0  0  0  0  0  0
    9.7174   -3.5446   -5.6248 C   0  0  0  0  0  0  0  0  0  0  0  0
    6.2636   -1.4833   -2.8379 C   0  0  0  0  0  0  0  0  0  0  0  0
    5.0950   -0.6649   -2.5545 C   0  0  0  0  0  0  0  0  0  0  0  0
    4.6100   -0.4530   -1.2622 C   0  0  0  0  0  0  0  0  0  0  0  0
    1.7487    1.2520    1.5803 H   0  0  0  0  0  0  0  0  0  0  0  0
    1.0767    0.9123   -0.0166 H   0  0  0  0  0  0  0  0  0  0  0  0
    2.1582    2.3369    0.2451 H   0  0  0  0  0  0  0  0  0  0  0  0
    2.0582    1.6926   -2.0140 H   0  0  0  0  0  0  0  0  0  0  0  0
    2.9138    1.3015   -4.2785 H   0  0  0  0  0  0  0  0  0  0  0  0
    7.7525   -0.8422   -6.1740 H   0  0  0  0  0  0  0  0  0  0  0  0
    7.8661   -2.1974   -7.3196 H   0  0  0  0  0  0  0  0  0  0  0  0
   10.1453   -0.4851   -6.1992 H   0  0  0  0  0  0  0  0  0  0  0  0
    9.4339   -0.3106   -7.8066 H   0  0  0  0  0  0  0  0  0  0  0  0
   11.5788   -1.6559   -7.7007 H   0  0  0  0  0  0  0  0  0  0  0  0
   10.2311   -2.4515   -8.5286 H   0  0  0  0  0  0  0  0  0  0  0  0
   12.5050   -3.9452   -7.5969 H   0  0  0  0  0  0  0  0  0  0  0  0
   12.7772   -5.9481   -6.1860 H   0  0  0  0  0  0  0  0  0  0  0  0
   11.0891   -6.4575   -4.4404 H   0  0  0  0  0  0  0  0  0  0  0  0
    9.1798   -5.0272   -4.1121 H   0  0  0  0  0  0  0  0  0  0  0  0
    6.8706   -1.7930   -1.9922 H   0  0  0  0  0  0  0  0  0  0  0  0
    5.0730   -0.9449   -0.4102 H   0  0  0  0  0  0  0  0  0  0  0  0
  1  2  1  0  0  0  0
  1 26  1  0  0  0  0
  1 27  1  0  0  0  0
  1 28  1  0  0  0  0
  2  3  1  0  0  0  0
  3  4  1  0  0  0  0
  3 25  2  0  0  0  0
  4  5  2  0  0  0  0
  4 29  1  0  0  0  0
  5  6  1  0  0  0  0
  5 30  1  0  0  0  0
  6  7  1  0  0  0  0
  6 24  2  0  0  0  0
  7  8  1  0  0  0  0
  8  9  2  0  0  0  0
  8 10  1  0  0  0  0
 10 11  1  0  0  0  0
 10 23  2  0  0  0  0
 11 12  2  0  0  0  0
 11 13  1  0  0  0  0
 13 14  1  0  0  0  0
 13 22  1  0  0  0  0
 14 15  1  0  0  0  0
 14 31  1  0  0  0  0
 14 32  1  0  0  0  0
 15 16  1  0  0  0  0
 15 33  1  0  0  0  0
 15 34  1  0  0  0  0
 16 17  1  0  0  0  0
 16 35  1  0  0  0  0
 16 36  1  0  0  0  0
 17 18  1  0  0  0  0
 17 22  2  0  0  0  0
 18 19  2  0  0  0  0
 18 37  1  0  0  0  0
 19 20  1  0  0  0  0
 19 38  1  0  0  0  0
 20 21  2  0  0  0  0
 20 39  1  0  0  0  0
 21 22  1  0  0  0  0
 21 40  1  0  0  0  0
 23 24  1  0  0  0  0
 23 41  1  0  0  0  0
 24 25  1  0  0  0  0
 25 42  1  0  0  0  0
M  END
>  <Energy>
56.956

$$$$

 OpenBabel04232614443D

 35 38  0  0  0  0  0  0  0  0999 V2000
    2.8797    1.8242   -0.8462 C   0  0  0  0  0  0  0  0  0  0  0  0
    3.8170    0.7549   -0.3953 C   0  0  0  0  0  0  0  0  0  0  0  0
    5.1278    0.8935    0.0208 C   0  0  0  0  0  0  0  0  0  0  0  0
    5.5608   -0.3602    0.4950 C   0  0  0  0  0  0  0  0  0  0  0  0
    4.5169   -1.2595    0.3532 C   0  0  0  0  0  0  0  0  0  0  0  0
    4.4464   -2.6378    0.9067 C   0  0  0  0  0  0  0  0  0  0  0  0
    3.5064   -0.5946   -0.3098 N   0  0  0  0  0  0  0  0  0  0  0  0
    2.3501   -1.1285   -0.8336 N   0  0  0  0  0  0  0  0  0  0  0  0
    2.0297   -0.7670   -2.1353 C   0  0  0  0  0  0  0  0  0  0  0  0
    0.8211   -0.6808   -2.6078 N   0  0  0  0  0  0  0  0  0  0  0  0
   -0.1448   -0.9607   -1.6956 C   0  0  0  0  0  0  0  0  0  0  0  0
   -1.7737   -0.5037   -1.9256 S   0  0  0  0  0  0  0  0  0  0  0  0
   -2.2414   -1.1769   -0.4156 C   0  0  0  0  0  0  0  0  0  0  0  0
   -1.1946   -1.8341    0.1971 C   0  0  0  0  0  0  0  0  0  0  0  0
   -1.3683   -2.6937    1.4153 C   0  0  0  0  0  0  0  0  0  0  0  0
   -0.6780   -3.8740    1.6136 C   0  0  0  0  0  0  0  0  0  0  0  0
   -1.0073   -4.4963    2.8515 C   0  0  0  0  0  0  0  0  0  0  0  0
   -1.9332   -3.7644    3.5574 C   0  0  0  0  0  0  0  0  0  0  0  0
   -2.4704   -2.3917    2.6823 S   0  0  0  0  0  0  0  0  0  0  0  0
    0.0460   -1.5338   -0.4561 C   0  0  0  0  0  0  0  0  0  0  0  0
    1.4063   -1.6599    0.0283 C   0  0  0  0  0  0  0  0  0  0  0  0
    1.6538   -2.1517    1.1246 O   0  0  0  0  0  0  0  0  0  0  0  0
    3.3089    2.8132   -0.6595 H   0  0  0  0  0  0  0  0  0  0  0  0
    1.9319    1.7655   -0.3010 H   0  0  0  0  0  0  0  0  0  0  0  0
    2.6801    1.7609   -1.9189 H   0  0  0  0  0  0  0  0  0  0  0  0
    5.6868    1.8215    0.0429 H   0  0  0  0  0  0  0  0  0  0  0  0
    6.5134   -0.5747    0.9662 H   0  0  0  0  0  0  0  0  0  0  0  0
    5.4487   -2.9819    1.2018 H   0  0  0  0  0  0  0  0  0  0  0  0
    4.0401   -3.3560    0.1897 H   0  0  0  0  0  0  0  0  0  0  0  0
    3.8504   -2.6501    1.8220 H   0  0  0  0  0  0  0  0  0  0  0  0
    2.8885   -0.5027   -2.7682 H   0  0  0  0  0  0  0  0  0  0  0  0
   -3.2761   -1.1247   -0.1054 H   0  0  0  0  0  0  0  0  0  0  0  0
    0.0272   -4.2885    0.9028 H   0  0  0  0  0  0  0  0  0  0  0  0
   -0.5735   -5.4229    3.2072 H   0  0  0  0  0  0  0  0  0  0  0  0
   -2.3405   -3.9813    4.5367 H   0  0  0  0  0  0  0  0  0  0  0  0
  1  2  1  0  0  0  0
  1 23  1  0  0  0  0
  1 24  1  0  0  0  0
  1 25  1  0  0  0  0
  2  3  2  0  0  0  0
  2  7  1  0  0  0  0
  3  4  1  0  0  0  0
  3 26  1  0  0  0  0
  4  5  2  0  0  0  0
  4 27  1  0  0  0  0
  5  6  1  0  0  0  0
  5  7  1  0  0  0  0
  6 28  1  0  0  0  0
  6 29  1  0  0  0  0
  6 30  1  0  0  0  0
  7  8  1  0  0  0  0
  8  9  1  0  0  0  0
  8 21  1  0  0  0  0
  9 10  2  0  0  0  0
  9 31  1  0  0  0  0
 10 11  1  0  0  0  0
 11 12  1  0  0  0  0
 11 20  2  0  0  0  0
 12 13  1  0  0  0  0
 13 14  2  0  0  0  0
 13 32  1  0  0  0  0
 14 15  1  0  0  0  0
 14 20  1  0  0  0  0
 15 16  2  0  0  0  0
 15 19  1  0  0  0  0
 16 17  1  0  0  0  0
 16 33  1  0  0  0  0
 17 18  2  0  0  0  0
 17 34  1  0  0  0  0
 18 19  1  0  0  0  0
 18 35  1  0  0  0  0
 20 21  1  0  0  0  0
 21 22  2  0  0  0  0
M  END
>  <Energy>
-14.5018

$$$$

 OpenBabel04232614443D

 31 33  0  0  0  0  0  0  0  0999 V2000
    5.5757   -0.3546    2.2000 C   0  0  0  0  0  0  0  0  0  0  0  0
    4.7360   -0.2092    1.2132 C   0  0  0  0  0  0  0  0  0  0  0  0
    3.7570   -0.0398    0.0629 C   0  0  0  0  0  0  0  0  0  0  0  0
    4.2554    1.0562   -0.7611 N   0  0  0  0  0  0  0  0  0  0  0  0
    5.5706    0.9086   -1.4210 C   0  0  0  0  0  0  0  0  0  0  0  0
    6.5247    2.0615   -1.0815 C   0  0  0  0  0  0  0  0  0  0  0  0
    5.7300    3.2925   -1.2156 C   0  0  0  0  0  0  0  0  0  0  0  0
    6.3204    4.4674   -1.4719 O   0  0  0  0  0  0  0  0  0  0  0  0
    5.3425    5.4342   -1.5529 N   0  0  0  0  0  0  0  0  0  0  0  0
    4.1557    4.8237   -1.3301 C   0  0  0  0  0  0  0  0  0  0  0  0
    2.9302    5.6334   -1.3622 C   0  0  0  0  0  0  0  0  0  0  0  0
    2.8828    6.7866   -2.1695 C   0  0  0  0  0  0  0  0  0  0  0  0
    1.7397    7.5905   -2.2214 C   0  0  0  0  0  0  0  0  0  0  0  0
    0.6241    7.2455   -1.4672 C   0  0  0  0  0  0  0  0  0  0  0  0
   -0.9298    8.3179   -1.5403 Br  0  0  0  0  0  0  0  0  0  0  0  0
    0.6514    6.1181   -0.6513 C   0  0  0  0  0  0  0  0  0  0  0  0
    1.8047    5.3255   -0.5899 C   0  0  0  0  0  0  0  0  0  0  0  0
    4.3664    3.4284   -1.1135 C   0  0  0  0  0  0  0  0  0  0  0  0
    3.5467    2.2676   -0.8020 C   0  0  0  0  0  0  0  0  0  0  0  0
    2.3549    2.3382   -0.5225 O   0  0  0  0  0  0  0  0  0  0  0  0
    6.2562   -0.4710    3.0122 H   0  0  0  0  0  0  0  0  0  0  0  0
    2.7586    0.1722    0.4555 H   0  0  0  0  0  0  0  0  0  0  0  0
    3.7198   -0.9474   -0.5474 H   0  0  0  0  0  0  0  0  0  0  0  0
    5.3700    0.9017   -2.5005 H   0  0  0  0  0  0  0  0  0  0  0  0
    6.0235   -0.0559   -1.1689 H   0  0  0  0  0  0  0  0  0  0  0  0
    7.3922    2.0562   -1.7480 H   0  0  0  0  0  0  0  0  0  0  0  0
    6.8804    1.9683   -0.0489 H   0  0  0  0  0  0  0  0  0  0  0  0
    3.7473    7.0752   -2.7662 H   0  0  0  0  0  0  0  0  0  0  0  0
    1.7369    8.4775   -2.8493 H   0  0  0  0  0  0  0  0  0  0  0  0
   -0.2134    5.8449   -0.0521 H   0  0  0  0  0  0  0  0  0  0  0  0
    1.7999    4.4786    0.0890 H   0  0  0  0  0  0  0  0  0  0  0  0
  1  2  3  0  0  0  0
  1 21  1  0  0  0  0
  2  3  1  0  0  0  0
  3  4  1  0  0  0  0
  3 22  1  0  0  0  0
  3 23  1  0  0  0  0
  4  5  1  0  0  0  0
  4 19  1  0  0  0  0
  5  6  1  0  0  0  0
  5 24  1  0  0  0  0
  5 25  1  0  0  0  0
  6  7  1  0  0  0  0
  6 26  1  0  0  0  0
  6 27  1  0  0  0  0
  7  8  1  0  0  0  0
  7 18  2  0  0  0  0
  8  9  1  0  0  0  0
  9 10  2  0  0  0  0
 10 11  1  0  0  0  0
 10 18  1  0  0  0  0
 11 12  1  0  0  0  0
 11 17  2  0  0  0  0
 12 13  2  0  0  0  0
 12 28  1  0  0  0  0
 13 14  1  0  0  0  0
 13 29  1  0  0  0  0
 14 15  1  0  0  0  0
 14 16  2  0  0  0  0
 16 17  1  0  0  0  0
 16 30  1  0  0  0  0
 17 31  1  0  0  0  0
 18 19  1  0  0  0  0
 19 20  2  0  0  0  0
M  END
>  <Energy>
138.222

$$$$

 OpenBabel04232614443D

 34 38  0  0  1  0  0  0  0  0999 V2000
    1.0115    0.1619   -0.4486 O   0  0  0  0  0  0  0  0  0  0  0  0
    2.0119    0.0608   -1.1224 C   0  0  0  0  0  0  0  0  0  0  0  0
    2.9030    1.0247   -1.9397 C   0  0  2  0  0  0  0  0  0  0  0  0
    2.0913    1.9003   -3.2720 Cl  0  0  0  0  0  0  0  0  0  0  0  0
    3.7379   -0.2433   -2.2866 C   0  0  1  0  0  0  0  0  0  0  0  0
    5.2275   -0.3815   -1.8637 C   0  0  0  0  0  0  0  0  0  0  0  0
    6.0845    0.6985   -1.6132 C   0  0  0  0  0  0  0  0  0  0  0  0
    7.4094    0.4979   -1.2194 C   0  0  0  0  0  0  0  0  0  0  0  0
    8.2616    1.5887   -0.9709 C   0  0  0  0  0  0  0  0  0  0  0  0
    9.5806    1.3720   -0.5866 C   0  0  0  0  0  0  0  0  0  0  0  0
   10.0468    0.0707   -0.4468 C   0  0  0  0  0  0  0  0  0  0  0  0
    9.1913   -1.0102   -0.6940 C   0  0  0  0  0  0  0  0  0  0  0  0
    7.8678   -0.8250   -1.0860 C   0  0  0  0  0  0  0  0  0  0  0  0
    7.0751   -1.8846   -1.3381 N   0  0  0  0  0  0  0  0  0  0  0  0
    5.7894   -1.6496   -1.6986 C   0  0  0  0  0  0  0  0  0  0  0  0
    5.0788   -2.7620   -2.1353 O   0  0  0  0  0  0  0  0  0  0  0  0
    3.9447   -3.1478   -1.4434 C   0  0  0  0  0  0  0  0  0  0  0  0
    3.8417   -4.5316   -1.2409 C   0  0  0  0  0  0  0  0  0  0  0  0
    2.7449   -5.0756   -0.5708 C   0  0  0  0  0  0  0  0  0  0  0  0
    1.7505   -4.2374   -0.0776 C   0  0  0  0  0  0  0  0  0  0  0  0
    1.8232   -2.8624   -0.3071 C   0  0  0  0  0  0  0  0  0  0  0  0
    2.8878   -2.3122   -1.0351 C   0  0  0  0  0  0  0  0  0  0  0  0
    2.8432   -0.9702   -1.3944 N   0  0  0  0  0  0  0  0  0  0  0  0
    3.4012    1.7589   -1.2979 H   0  0  0  0  0  0  0  0  0  0  0  0
    3.5846   -0.5693   -3.3267 H   0  0  0  0  0  0  0  0  0  0  0  0
    5.7157    1.7144   -1.7343 H   0  0  0  0  0  0  0  0  0  0  0  0
    7.9026    2.6085   -1.0782 H   0  0  0  0  0  0  0  0  0  0  0  0
   10.2398    2.2172   -0.4023 H   0  0  0  0  0  0  0  0  0  0  0  0
   11.0766   -0.1079   -0.1480 H   0  0  0  0  0  0  0  0  0  0  0  0
    9.5687   -2.0230   -0.5815 H   0  0  0  0  0  0  0  0  0  0  0  0
    4.6200   -5.1925   -1.6163 H   0  0  0  0  0  0  0  0  0  0  0  0
    2.6680   -6.1511   -0.4315 H   0  0  0  0  0  0  0  0  0  0  0  0
    0.9020   -4.6516    0.4616 H   0  0  0  0  0  0  0  0  0  0  0  0
    1.0114   -2.2378    0.0599 H   0  0  0  0  0  0  0  0  0  0  0  0
  1  2  2  0  0  0  0
  2  3  1  0  0  0  0
  2 23  1  0  0  0  0
  3  5  1  0  0  0  0
  3  4  1  0  0  0  0
  3 24  1  1  0  0  0
  5  6  1  0  0  0  0
  5 23  1  0  0  0  0
  5 25  1  6  0  0  0
  6  7  1  0  0  0  0
  6 15  2  0  0  0  0
  7  8  2  0  0  0  0
  7 26  1  0  0  0  0
  8  9  1  0  0  0  0
  8 13  1  0  0  0  0
  9 10  2  0  0  0  0
  9 27  1  0  0  0  0
 10 11  1  0  0  0  0
 10 28  1  0  0  0  0
 11 12  2  0  0  0  0
 11 29  1  0  0  0  0
 12 13  1  0  0  0  0
 12 30  1  0  0  0  0
 13 14  2  0  0  0  0
 14 15  1  0  0  0  0
 15 16  1  0  0  0  0
 16 17  1  0  0  0  0
 17 18  1  0  0  0  0
 17 22  2  0  0  0  0
 18 19  2  0  0  0  0
 18 31  1  0  0  0  0
 19 20  1  0  0  0  0
 19 32  1  0  0  0  0
 20 21  2  0  0  0  0
 20 33  1  0  0  0  0
 21 22  1  0  0  0  0
 21 34  1  0  0  0  0
 22 23  1  0  0  0  0
M  END
>  <Energy>
82.1323

$$$$

 OpenBabel04232614443D

 27 29  0  0  0  0  0  0  0  0999 V2000
    2.6414   -0.2301    1.0611 O   0  0  0  0  0  0  0  0  0  0  0  0
    2.0664    0.0389   -0.0007 N   0  3  0  0  0  0  0  0  0  0  0  0
    0.8732    0.3719   -0.0869 O   0  5  0  0  0  0  0  0  0  0  0  0
    2.8470    0.0005   -1.2311 C   0  0  0  0  0  0  0  0  0  0  0  0
    2.4901    0.8693   -2.2060 C   0  0  0  0  0  0  0  0  0  0  0  0
    3.2214    0.9274   -3.4656 C   0  0  0  0  0  0  0  0  0  0  0  0
    4.2667    0.1043   -3.6468 C   0  0  0  0  0  0  0  0  0  0  0  0
    4.6173   -0.7877   -2.6356 N   0  0  0  0  0  0  0  0  0  0  0  0
    5.6365   -1.7067   -2.6105 C   0  0  0  0  0  0  0  0  0  0  0  0
    5.5368   -2.3425   -1.3917 C   0  0  0  0  0  0  0  0  0  0  0  0
    6.4066   -3.3844   -0.8676 C   0  0  0  0  0  0  0  0  0  0  0  0
    7.4803   -3.9063   -1.6026 C   0  0  0  0  0  0  0  0  0  0  0  0
    8.3114   -4.8874   -1.0496 C   0  0  0  0  0  0  0  0  0  0  0  0
    8.0714   -5.3542    0.2410 C   0  0  0  0  0  0  0  0  0  0  0  0
    9.2066   -6.6651    0.9918 Br  0  0  0  0  0  0  0  0  0  0  0  0
    7.0046   -4.8565    0.9824 C   0  0  0  0  0  0  0  0  0  0  0  0
    6.1771   -3.8766    0.4276 C   0  0  0  0  0  0  0  0  0  0  0  0
    4.4734   -1.8387   -0.6787 N   0  0  0  0  0  0  0  0  0  0  0  0
    3.9437   -0.8890   -1.4218 C   0  0  0  0  0  0  0  0  0  0  0  0
    1.6613    1.5651   -2.0923 H   0  0  0  0  0  0  0  0  0  0  0  0
    2.9081    1.6376   -4.2250 H   0  0  0  0  0  0  0  0  0  0  0  0
    4.8611    0.0932   -4.5529 H   0  0  0  0  0  0  0  0  0  0  0  0
    6.3219   -1.8119   -3.4384 H   0  0  0  0  0  0  0  0  0  0  0  0
    7.6931   -3.5595   -2.6095 H   0  0  0  0  0  0  0  0  0  0  0  0
    9.1429   -5.2751   -1.6322 H   0  0  0  0  0  0  0  0  0  0  0  0
    6.8071   -5.2138    1.9895 H   0  0  0  0  0  0  0  0  0  0  0  0
    5.3484   -3.4891    1.0200 H   0  0  0  0  0  0  0  0  0  0  0  0
  1  2  2  0  0  0  0
  2  3  1  0  0  0  0
  2  4  1  0  0  0  0
  4  5  2  0  0  0  0
  4 19  1  0  0  0  0
  5  6  1  0  0  0  0
  5 20  1  0  0  0  0
  6  7  2  0  0  0  0
  6 21  1  0  0  0  0
  7  8  1  0  0  0  0
  7 22  1  0  0  0  0
  8  9  1  0  0  0  0
  8 19  1  0  0  0  0
  9 10  2  0  0  0  0
  9 23  1  0  0  0  0
 10 11  1  0  0  0  0
 10 18  1  0  0  0  0
 11 12  1  0  0  0  0
 11 17  2  0  0  0  0
 12 13  2  0  0  0  0
 12 24  1  0  0  0  0
 13 14  1  0  0  0  0
 13 25  1  0  0  0  0
 14 15  1  0  0  0  0
 14 16  2  0  0  0  0
 16 17  1  0  0  0  0
 16 26  1  0  0  0  0
 17 27  1  0  0  0  0
 18 19  2  0  0  0  0
M  CHG  2   2   1   3  -1
M  END
>  <Energy>
62.7384

$$$$

 OpenBabel04232614443D

 44 47  0  0  0  0  0  0  0  0999 V2000
    1.2031   -0.0631    1.3525 C   0  0  0  0  0  0  0  0  0  0  0  0
    2.5953   -0.0463    0.7602 C   0  0  0  0  0  0  0  0  0  0  0  0
    3.2472   -1.2267    0.7956 C   0  0  0  0  0  0  0  0  0  0  0  0
    4.5649   -1.3599    0.1644 C   0  0  0  0  0  0  0  0  0  0  0  0
    5.1720   -2.4304    0.1793 O   0  0  0  0  0  0  0  0  0  0  0  0
    5.1242   -0.1715   -0.4780 C   0  0  0  0  0  0  0  0  0  0  0  0
    4.4403    0.9892   -0.4699 C   0  0  0  0  0  0  0  0  0  0  0  0
    5.1732    2.1701   -1.0772 C   0  0  0  0  0  0  0  0  0  0  0  0
    3.1498    1.1139    0.1365 N   0  0  0  0  0  0  0  0  0  0  0  0
    2.4258    2.3652    0.0995 C   0  0  0  0  0  0  0  0  0  0  0  0
    1.7880    2.8882    1.2385 C   0  0  0  0  0  0  0  0  0  0  0  0
    1.0649    4.0928    1.2265 C   0  0  0  0  0  0  0  0  0  0  0  0
    1.1275    4.8708    0.0638 C   0  0  0  0  0  0  0  0  0  0  0  0
    1.7373    4.3873   -1.0867 C   0  0  0  0  0  0  0  0  0  0  0  0
    2.3310    3.1147   -1.0859 C   0  0  0  0  0  0  0  0  0  0  0  0
    1.6642    5.2902   -2.1070 N   0  0  0  0  0  0  0  0  0  0  0  0
    1.0624    6.3499   -1.6044 C   0  0  0  0  0  0  0  0  0  0  0  0
    1.0022    7.6606   -2.3082 C   0  0  0  0  0  0  0  0  0  0  0  0
    0.6412    6.1254   -0.2927 N   0  0  0  0  0  0  0  0  0  0  0  0
   -0.0674    7.0357    0.5418 C   0  0  0  0  0  0  0  0  0  0  0  0
   -1.0875    7.8334    0.0074 C   0  0  0  0  0  0  0  0  0  0  0  0
   -1.7338    8.7755    0.8106 C   0  0  0  0  0  0  0  0  0  0  0  0
   -1.3729    8.9190    2.1481 C   0  0  0  0  0  0  0  0  0  0  0  0
   -0.3808    8.1065    2.6923 C   0  0  0  0  0  0  0  0  0  0  0  0
    0.2705    7.1639    1.8947 C   0  0  0  0  0  0  0  0  0  0  0  0
    0.8342   -1.0864    1.5004 H   0  0  0  0  0  0  0  0  0  0  0  0
    0.4784    0.4298    0.6980 H   0  0  0  0  0  0  0  0  0  0  0  0
    1.1911    0.3995    2.3437 H   0  0  0  0  0  0  0  0  0  0  0  0
    2.8466   -2.1239    1.2511 H   0  0  0  0  0  0  0  0  0  0  0  0
    6.1033   -0.2909   -0.9246 H   0  0  0  0  0  0  0  0  0  0  0  0
    6.2422    1.9596   -1.2111 H   0  0  0  0  0  0  0  0  0  0  0  0
    5.1151    3.0550   -0.4379 H   0  0  0  0  0  0  0  0  0  0  0  0
    4.7941    2.4017   -2.0766 H   0  0  0  0  0  0  0  0  0  0  0  0
    1.8479    2.3652    2.1887 H   0  0  0  0  0  0  0  0  0  0  0  0
    0.5160    4.4063    2.1081 H   0  0  0  0  0  0  0  0  0  0  0  0
    2.7325    2.7504   -2.0219 H   0  0  0  0  0  0  0  0  0  0  0  0
    1.7083    7.6663   -3.1459 H   0  0  0  0  0  0  0  0  0  0  0  0
    1.2833    8.4860   -1.6463 H   0  0  0  0  0  0  0  0  0  0  0  0
    0.0075    7.8426   -2.7210 H   0  0  0  0  0  0  0  0  0  0  0  0
   -1.4253    7.7152   -1.0188 H   0  0  0  0  0  0  0  0  0  0  0  0
   -2.5217    9.3967    0.3910 H   0  0  0  0  0  0  0  0  0  0  0  0
   -1.8652    9.6646    2.7670 H   0  0  0  0  0  0  0  0  0  0  0  0
   -0.0989    8.2199    3.7368 H   0  0  0  0  0  0  0  0  0  0  0  0
    1.0776    6.5892    2.3396 H   0  0  0  0  0  0  0  0  0  0  0  0
  1  2  1  0  0  0  0
  1 26  1  0  0  0  0
  1 27  1  0  0  0  0
  1 28  1  0  0  0  0
  2  3  2  0  0  0  0
  2  9  1  0  0  0  0
  3  4  1  0  0  0  0
  3 29  1  0  0  0  0
  4  5  2  0  0  0  0
  4  6  1  0  0  0  0
  6  7  2  0  0  0  0
  6 30  1  0  0  0  0
  7  8  1  0  0  0  0
  7  9  1  0  0  0  0
  8 31  1  0  0  0  0
  8 32  1  0  0  0  0
  8 33  1  0  0  0  0
  9 10  1  0  0  0  0
 10 11  1  0  0  0  0
 10 15  2  0  0  0  0
 11 12  2  0  0  0  0
 11 34  1  0  0  0  0
 12 13  1  0  0  0  0
 12 35  1  0  0  0  0
 13 14  2  0  0  0  0
 13 19  1  0  0  0  0
 14 15  1  0  0  0  0
 14 16  1  0  0  0  0
 15 36  1  0  0  0  0
 16 17  2  0  0  0  0
 17 18  1  0  0  0  0
 17 19  1  0  0  0  0
 18 37  1  0  0  0  0
 18 38  1  0  0  0  0
 18 39  1  0  0  0  0
 19 20  1  0  0  0  0
 20 21  1  0  0  0  0
 20 25  2  0  0  0  0
 21 22  2  0  0  0  0
 21 40  1  0  0  0  0
 22 23  1  0  0  0  0
 22 41  1  0  0  0  0
 23 24  2  0  0  0  0
 23 42  1  0  0  0  0
 24 25  1  0  0  0  0
 24 43  1  0  0  0  0
 25 44  1  0  0  0  0
M  END
>  <Energy>
83.952

$$$$

 OpenBabel04232614443D

 45 48  0  0  0  0  0  0  0  0999 V2000
    0.9573    0.0089    0.0872 C   0  0  0  0  0  0  0  0  0  0  0  0
    2.4616   -0.0321    0.0859 C   0  0  0  0  0  0  0  0  0  0  0  0
    3.1699    1.1823    0.0846 C   0  0  0  0  0  0  0  0  0  0  0  0
    4.5602    1.1781    0.0873 C   0  0  0  0  0  0  0  0  0  0  0  0
    5.2116    2.4269    0.0952 N   0  0  0  0  0  0  0  0  0  0  0  0
    6.5823    2.6105    0.1150 C   0  0  0  0  0  0  0  0  0  0  0  0
    7.4206    1.7121    0.0747 O   0  0  0  0  0  0  0  0  0  0  0  0
    7.0149    4.0915    0.1568 C   0  0  0  0  0  0  0  0  0  0  0  0
    8.5530    4.1904    0.1066 C   0  0  0  0  0  0  0  0  0  0  0  0
    9.0663    5.6206    0.2395 C   0  0  0  0  0  0  0  0  0  0  0  0
    8.5284    6.2894    1.4974 C   0  0  0  0  0  0  0  0  0  0  0  0
    7.0061    6.2384    1.5368 C   0  0  0  0  0  0  0  0  0  0  0  0
    6.4759    4.8095    1.4044 C   0  0  0  0  0  0  0  0  0  0  0  0
    5.2526    0.0259    0.0912 N   0  0  0  0  0  0  0  0  0  0  0  0
    4.5826   -1.1620    0.0884 C   0  0  0  0  0  0  0  0  0  0  0  0
    3.1922   -1.2370    0.0867 C   0  0  0  0  0  0  0  0  0  0  0  0
    2.5303   -2.5713    0.0858 C   0  0  0  0  0  0  0  0  0  0  0  0
    1.3132   -2.7051    0.0855 O   0  0  0  0  0  0  0  0  0  0  0  0
    3.3502   -3.6908    0.0854 O   0  0  0  0  0  0  0  0  0  0  0  0
    4.7530   -3.6124    0.0873 C   0  0  0  0  0  0  0  0  0  0  0  0
    5.4385   -4.8281    0.0881 C   0  0  0  0  0  0  0  0  0  0  0  0
    6.8278   -4.8204    0.0901 C   0  0  0  0  0  0  0  0  0  0  0  0
    7.5086   -3.6032    0.0910 C   0  0  0  0  0  0  0  0  0  0  0  0
    6.7997   -2.3924    0.0900 C   0  0  0  0  0  0  0  0  0  0  0  0
    5.3966   -2.3773    0.0886 C   0  0  0  0  0  0  0  0  0  0  0  0
    0.5814    1.0373    0.0871 H   0  0  0  0  0  0  0  0  0  0  0  0
    0.5618   -0.4762    0.9856 H   0  0  0  0  0  0  0  0  0  0  0  0
    0.5607   -0.4769   -0.8102 H   0  0  0  0  0  0  0  0  0  0  0  0
    2.6237    2.1213    0.0853 H   0  0  0  0  0  0  0  0  0  0  0  0
    4.6243    3.2472    0.0810 H   0  0  0  0  0  0  0  0  0  0  0  0
    6.6096    4.5770   -0.7416 H   0  0  0  0  0  0  0  0  0  0  0  0
    8.9240    3.7608   -0.8321 H   0  0  0  0  0  0  0  0  0  0  0  0
    8.9870    3.5875    0.9158 H   0  0  0  0  0  0  0  0  0  0  0  0
    8.7726    6.2019   -0.6427 H   0  0  0  0  0  0  0  0  0  0  0  0
   10.1622    5.6153    0.2680 H   0  0  0  0  0  0  0  0  0  0  0  0
    8.8676    7.3310    1.5367 H   0  0  0  0  0  0  0  0  0  0  0  0
    8.9361    5.7883    2.3842 H   0  0  0  0  0  0  0  0  0  0  0  0
    6.6012    6.8561    0.7256 H   0  0  0  0  0  0  0  0  0  0  0  0
    6.6509    6.6761    2.4768 H   0  0  0  0  0  0  0  0  0  0  0  0
    5.3809    4.8468    1.3837 H   0  0  0  0  0  0  0  0  0  0  0  0
    6.7482    4.2386    2.3012 H   0  0  0  0  0  0  0  0  0  0  0  0
    4.8919   -5.7671    0.0874 H   0  0  0  0  0  0  0  0  0  0  0  0
    7.3779   -5.7582    0.0909 H   0  0  0  0  0  0  0  0  0  0  0  0
    8.5963   -3.5922    0.0922 H   0  0  0  0  0  0  0  0  0  0  0  0
    7.3561   -1.4542    0.0901 H   0  0  0  0  0  0  0  0  0  0  0  0
  1  2  1  0  0  0  0
  1 26  1  0  0  0  0
  1 27  1  0  0  0  0
  1 28  1  0  0  0  0
  2  3  1  0  0  0  0
  2 16  2  0  0  0  0
  3  4  2  0  0  0  0
  3 29  1  0  0  0  0
  4  5  1  0  0  0  0
  4 14  1  0  0  0  0
  5  6  1  0  0  0  0
  5 30  1  0  0  0  0
  6  7  2  0  0  0  0
  6  8  1  0  0  0  0
  8  9  1  0  0  0  0
  8 13  1  0  0  0  0
  8 31  1  0  0  0  0
  9 10  1  0  0  0  0
  9 32  1  0  0  0  0
  9 33  1  0  0  0  0
 10 11  1  0  0  0  0
 10 34  1  0  0  0  0
 10 35  1  0  0  0  0
 11 12  1  0  0  0  0
 11 36  1  0  0  0  0
 11 37  1  0  0  0  0
 12 13  1  0  0  0  0
 12 38  1  0  0  0  0
 12 39  1  0  0  0  0
 13 40  1  0  0  0  0
 13 41  1  0  0  0  0
 14 15  2  0  0  0  0
 15 16  1  0  0  0  0
 15 25  1  0  0  0  0
 16 17  1  0  0  0  0
 17 18  2  0  0  0  0
 17 19  1  0  0  0  0
 19 20  1  0  0  0  0
 20 21  1  0  0  0  0
 20 25  2  0  0  0  0
 21 22  2  0  0  0  0
 21 42  1  0  0  0  0
 22 23  1  0  0  0  0
 22 43  1  0  0  0  0
 23 24  2  0  0  0  0
 23 44  1  0  0  0  0
 24 25  1  0  0  0  0
 24 45  1  0  0  0  0
M  END
>  <Energy>
25.0073

$$$$

 OpenBabel04232614443D

 41 44  0  0  0  0  0  0  0  0999 V2000
    3.7123    1.1024    0.3166 C   0  0  0  0  0  0  0  0  0  0  0  0
    2.5969    0.0610    0.0621 C   0  0  0  0  0  0  0  0  0  0  0  0
    1.3953    0.3976    0.9655 C   0  0  0  0  0  0  0  0  0  0  0  0
    2.1687    0.2345   -1.4134 C   0  0  0  0  0  0  0  0  0  0  0  0
    3.0491   -1.3752    0.3806 C   0  0  0  0  0  0  0  0  0  0  0  0
    3.9977   -1.6381    1.3829 C   0  0  0  0  0  0  0  0  0  0  0  0
    4.3973   -2.9447    1.6904 C   0  0  0  0  0  0  0  0  0  0  0  0
    3.8560   -4.0404    1.0130 C   0  0  0  0  0  0  0  0  0  0  0  0
    4.2640   -5.4148    1.2964 C   0  0  0  0  0  0  0  0  0  0  0  0
    3.5442   -6.5183    1.0905 N   0  0  0  0  0  0  0  0  0  0  0  0
    4.3010   -7.6309    1.4482 N   0  0  0  0  0  0  0  0  0  0  0  0
    5.4459   -7.1570    1.8422 C   0  0  0  0  0  0  0  0  0  0  0  0
    6.9359   -7.7756    2.3941 S   0  0  0  0  0  0  0  0  0  0  0  0
    7.4878   -6.0748    2.4821 C   0  0  0  0  0  0  0  0  0  0  0  0
    8.8680   -5.7783    2.9417 C   0  0  0  0  0  0  0  0  0  0  0  0
    9.2771   -4.4526    3.0608 C   0  0  0  0  0  0  0  0  0  0  0  0
   10.5739   -4.1961    3.4971 C   0  0  0  0  0  0  0  0  0  0  0  0
   11.4154   -5.2620    3.7946 C   0  0  0  0  0  0  0  0  0  0  0  0
   10.9253   -6.5486    3.6446 C   0  0  0  0  0  0  0  0  0  0  0  0
    9.6721   -6.8314    3.2269 N   0  0  0  0  0  0  0  0  0  0  0  0
    6.6296   -5.1483    2.1332 N   0  0  0  0  0  0  0  0  0  0  0  0
    5.4900   -5.8083    1.7781 N   0  0  0  0  0  0  0  0  0  0  0  0
    2.8851   -3.7945    0.0384 C   0  0  0  0  0  0  0  0  0  0  0  0
    2.4890   -2.4865   -0.2721 C   0  0  0  0  0  0  0  0  0  0  0  0
    3.3974    2.1049    0.0034 H   0  0  0  0  0  0  0  0  0  0  0  0
    4.6233    0.8512   -0.2393 H   0  0  0  0  0  0  0  0  0  0  0  0
    3.9739    1.1810    1.3773 H   0  0  0  0  0  0  0  0  0  0  0  0
    1.0299    1.4134    0.7762 H   0  0  0  0  0  0  0  0  0  0  0  0
    1.6618    0.3333    2.0271 H   0  0  0  0  0  0  0  0  0  0  0  0
    0.5605   -0.2925    0.7954 H   0  0  0  0  0  0  0  0  0  0  0  0
    1.9246    1.2809   -1.6329 H   0  0  0  0  0  0  0  0  0  0  0  0
    1.2739   -0.3473   -1.6585 H   0  0  0  0  0  0  0  0  0  0  0  0
    2.9695   -0.0702   -2.0972 H   0  0  0  0  0  0  0  0  0  0  0  0
    4.4450   -0.8332    1.9596 H   0  0  0  0  0  0  0  0  0  0  0  0
    5.1306   -3.0809    2.4814 H   0  0  0  0  0  0  0  0  0  0  0  0
    8.6081   -3.6320    2.8224 H   0  0  0  0  0  0  0  0  0  0  0  0
   10.9248   -3.1727    3.6037 H   0  0  0  0  0  0  0  0  0  0  0  0
   12.4316   -5.0943    4.1360 H   0  0  0  0  0  0  0  0  0  0  0  0
   11.5470   -7.4138    3.8639 H   0  0  0  0  0  0  0  0  0  0  0  0
    2.4267   -4.6252   -0.4970 H   0  0  0  0  0  0  0  0  0  0  0  0
    1.7234   -2.3662   -1.0340 H   0  0  0  0  0  0  0  0  0  0  0  0
  1  2  1  0  0  0  0
  1 25  1  0  0  0  0
  1 26  1  0  0  0  0
  1 27  1  0  0  0  0
  2  3  1  0  0  0  0
  2  4  1  0  0  0  0
  2  5  1  0  0  0  0
  3 28  1  0  0  0  0
  3 29  1  0  0  0  0
  3 30  1  0  0  0  0
  4 31  1  0  0  0  0
  4 32  1  0  0  0  0
  4 33  1  0  0  0  0
  5  6  1  0  0  0  0
  5 24  2  0  0  0  0
  6  7  2  0  0  0  0
  6 34  1  0  0  0  0
  7  8  1  0  0  0  0
  7 35  1  0  0  0  0
  8  9  1  0  0  0  0
  8 23  2  0  0  0  0
  9 10  2  0  0  0  0
  9 22  1  0  0  0  0
 10 11  1  0  0  0  0
 11 12  2  0  0  0  0
 12 13  1  0  0  0  0
 12 22  1  0  0  0  0
 13 14  1  0  0  0  0
 14 15  1  0  0  0  0
 14 21  2  0  0  0  0
 15 16  1  0  0  0  0
 15 20  2  0  0  0  0
 16 17  2  0  0  0  0
 16 36  1  0  0  0  0
 17 18  1  0  0  0  0
 17 37  1  0  0  0  0
 18 19  2  0  0  0  0
 18 38  1  0  0  0  0
 19 20  1  0  0  0  0
 19 39  1  0  0  0  0
 21 22  1  0  0  0  0
 23 24  1  0  0  0  0
 23 40  1  0  0  0  0
 24 41  1  0  0  0  0
M  END
>  <Energy>
123.799

$$$$

 OpenBabel04232614443D

 43 46  0  0  1  0  0  0  0  0999 V2000
    0.9956   -0.4110   -0.5089 C   0  0  0  0  0  0  0  0  0  0  0  0
    2.4253   -0.0945   -0.0818 C   0  0  3  0  0  0  0  0  0  0  0  0
    3.1059   -1.1240    0.8677 C   0  0  0  0  0  0  0  0  0  0  0  0
    4.1112   -1.7414    0.4908 O   0  0  0  0  0  0  0  0  0  0  0  0
    2.6320   -1.2966    2.1679 N   0  0  0  0  0  0  0  0  0  0  0  0
    1.4356   -0.6585    2.7273 C   0  0  0  0  0  0  0  0  0  0  0  0
    1.3238   -0.7024    4.2588 C   0  0  0  0  0  0  0  0  0  0  0  0
    1.6060   -2.0852    4.7700 C   0  0  0  0  0  0  0  0  0  0  0  0
    0.9116   -2.6463    5.8507 C   0  0  0  0  0  0  0  0  0  0  0  0
    1.2397   -3.9229    6.3060 C   0  0  0  0  0  0  0  0  0  0  0  0
    2.2713   -4.6372    5.6988 C   0  0  0  0  0  0  0  0  0  0  0  0
    2.9780   -4.0791    4.6333 C   0  0  0  0  0  0  0  0  0  0  0  0
    2.6431   -2.8060    4.1578 C   0  0  0  0  0  0  0  0  0  0  0  0
    3.4334   -2.1542    3.0516 C   0  0  0  0  0  0  0  0  0  0  0  0
    3.3127    0.0560   -1.2425 N   0  0  0  0  0  0  0  0  0  0  0  0
    4.3897    0.9041   -1.2303 C   0  0  0  0  0  0  0  0  0  0  0  0
    4.7096    1.7195   -0.3858 O   0  0  0  0  0  0  0  0  0  0  0  0
    5.1484    0.6399   -2.4505 C   0  0  0  0  0  0  0  0  0  0  0  0
    6.2901    1.2379   -2.9457 C   0  0  0  0  0  0  0  0  0  0  0  0
    6.8019    0.7395   -4.1488 C   0  0  0  0  0  0  0  0  0  0  0  0
    6.1716   -0.3322   -4.8160 C   0  0  0  0  0  0  0  0  0  0  0  0
    5.0160   -0.9187   -4.2933 C   0  0  0  0  0  0  0  0  0  0  0  0
    4.5277   -0.4052   -3.1080 C   0  0  0  0  0  0  0  0  0  0  0  0
    3.3680   -0.7988   -2.3139 C   0  0  0  0  0  0  0  0  0  0  0  0
    2.6393   -1.7251   -2.6154 O   0  0  0  0  0  0  0  0  0  0  0  0
    0.2872   -0.3363    0.3168 H   0  0  0  0  0  0  0  0  0  0  0  0
    0.8980   -1.4179   -0.9236 H   0  0  0  0  0  0  0  0  0  0  0  0
    0.6655    0.3026   -1.2749 H   0  0  0  0  0  0  0  0  0  0  0  0
    2.4306    0.8690    0.4420 H   0  0  0  0  0  0  0  0  0  0  0  0
    0.5806   -1.1962    2.3017 H   0  0  0  0  0  0  0  0  0  0  0  0
    1.3817    0.3798    2.3868 H   0  0  0  0  0  0  0  0  0  0  0  0
    0.3183   -0.3771    4.5545 H   0  0  0  0  0  0  0  0  0  0  0  0
    2.0436   -0.0114    4.7120 H   0  0  0  0  0  0  0  0  0  0  0  0
    0.1161   -2.0937    6.3409 H   0  0  0  0  0  0  0  0  0  0  0  0
    0.6988   -4.3599    7.1383 H   0  0  0  0  0  0  0  0  0  0  0  0
    2.5334   -5.6304    6.0592 H   0  0  0  0  0  0  0  0  0  0  0  0
    3.7940   -4.6393    4.1798 H   0  0  0  0  0  0  0  0  0  0  0  0
    3.9522   -2.9215    2.4671 H   0  0  0  0  0  0  0  0  0  0  0  0
    4.2000   -1.5118    3.5043 H   0  0  0  0  0  0  0  0  0  0  0  0
    6.7695    2.0551   -2.4176 H   0  0  0  0  0  0  0  0  0  0  0  0
    7.7030    1.1783   -4.5740 H   0  0  0  0  0  0  0  0  0  0  0  0
    6.5960   -0.7098   -5.7445 H   0  0  0  0  0  0  0  0  0  0  0  0
    4.5224   -1.7496   -4.7899 H   0  0  0  0  0  0  0  0  0  0  0  0
  1  2  1  0  0  0  0
  1 26  1  0  0  0  0
  1 27  1  0  0  0  0
  1 28  1  0  0  0  0
  2  3  1  0  0  0  0
  2 15  1  0  0  0  0
  2 29  1  0  0  0  0
  3  4  2  0  0  0  0
  3  5  1  0  0  0  0
  5  6  1  0  0  0  0
  5 14  1  0  0  0  0
  6  7  1  0  0  0  0
  6 30  1  0  0  0  0
  6 31  1  0  0  0  0
  7  8  1  0  0  0  0
  7 32  1  0  0  0  0
  7 33  1  0  0  0  0
  8  9  1  0  0  0  0
  8 13  2  0  0  0  0
  9 10  2  0  0  0  0
  9 34  1  0  0  0  0
 10 11  1  0  0  0  0
 10 35  1  0  0  0  0
 11 12  2  0  0  0  0
 11 36  1  0  0  0  0
 12 13  1  0  0  0  0
 12 37  1  0  0  0  0
 13 14  1  0  0  0  0
 14 38  1  0  0  0  0
 14 39  1  0  0  0  0
 15 16  1  0  0  0  0
 15 24  1  0  0  0  0
 16 17  2  0  0  0  0
 16 18  1  0  0  0  0
 18 19  1  0  0  0  0
 18 23  2  0  0  0  0
 19 20  2  0  0  0  0
 19 40  1  0  0  0  0
 20 21  1  0  0  0  0
 20 41  1  0  0  0  0
 21 22  2  0  0  0  0
 21 42  1  0  0  0  0
 22 23  1  0  0  0  0
 22 43  1  0  0  0  0
 23 24  1  0  0  0  0
 24 25  2  0  0  0  0
M  END
>  <Energy>
33.5154

$$$$

 OpenBabel04232614443D

 39 42  0  0  0  0  0  0  0  0999 V2000
    0.9982   -0.0110    0.3137 N   0  0  0  0  0  0  0  0  0  0  0  0
    2.3737    0.0793    0.2645 C   0  0  0  0  0  0  0  0  0  0  0  0
    2.9158    1.2940    0.2739 N   0  0  0  0  0  0  0  0  0  0  0  0
    4.2489    1.3609    0.1821 C   0  0  0  0  0  0  0  0  0  0  0  0
    4.7834    2.6573    0.2020 N   0  0  0  0  0  0  0  0  0  0  0  0
    5.0690    0.2327    0.0732 C   0  0  0  0  0  0  0  0  0  0  0  0
    6.4922    0.2566   -0.0244 C   0  0  0  0  0  0  0  0  0  0  0  0
    7.2651   -0.9015   -0.2025 C   0  0  0  0  0  0  0  0  0  0  0  0
    8.6589   -0.8602   -0.3900 N   0  0  0  0  0  0  0  0  0  0  0  0
    9.3666    0.4040   -0.1524 C   0  0  0  0  0  0  0  0  0  0  0  0
   10.8391    0.4398   -0.5582 C   0  0  0  0  0  0  0  0  0  0  0  0
   11.5879   -0.8439   -0.3984 C   0  0  0  0  0  0  0  0  0  0  0  0
   12.9920   -0.8399   -0.4181 C   0  0  0  0  0  0  0  0  0  0  0  0
   13.7085   -2.0347   -0.3655 C   0  0  0  0  0  0  0  0  0  0  0  0
   13.0280   -3.2446   -0.2969 C   0  0  0  0  0  0  0  0  0  0  0  0
   11.6334   -3.2537   -0.2775 C   0  0  0  0  0  0  0  0  0  0  0  0
   10.8982   -2.0540   -0.3310 C   0  0  0  0  0  0  0  0  0  0  0  0
    9.3922   -2.1330   -0.3399 C   0  0  0  0  0  0  0  0  0  0  0  0
    6.5361   -2.1002   -0.2247 C   0  0  0  0  0  0  0  0  0  0  0  0
    5.1364   -2.1304   -0.0934 C   0  0  0  0  0  0  0  0  0  0  0  0
    4.3879   -0.9749    0.0448 C   0  0  0  0  0  0  0  0  0  0  0  0
    3.0550   -1.0605    0.1291 N   0  0  0  0  0  0  0  0  0  0  0  0
    0.5890    0.8486   -0.0369 H   0  0  0  0  0  0  0  0  0  0  0  0
    0.7002   -0.8743   -0.1199 H   0  0  0  0  0  0  0  0  0  0  0  0
    3.9959    3.3001    0.2353 H   0  0  0  0  0  0  0  0  0  0  0  0
    5.3669    2.8261   -0.6105 H   0  0  0  0  0  0  0  0  0  0  0  0
    6.9672    1.2297    0.0452 H   0  0  0  0  0  0  0  0  0  0  0  0
    9.2731    0.6852    0.9036 H   0  0  0  0  0  0  0  0  0  0  0  0
    8.8960    1.2001   -0.7450 H   0  0  0  0  0  0  0  0  0  0  0  0
   10.9186    0.7424   -1.6097 H   0  0  0  0  0  0  0  0  0  0  0  0
   11.3297    1.2240    0.0341 H   0  0  0  0  0  0  0  0  0  0  0  0
   13.5357    0.0997   -0.4916 H   0  0  0  0  0  0  0  0  0  0  0  0
   14.7948   -2.0204   -0.3908 H   0  0  0  0  0  0  0  0  0  0  0  0
   13.5800   -4.1802   -0.2675 H   0  0  0  0  0  0  0  0  0  0  0  0
   11.1148   -4.2096   -0.2336 H   0  0  0  0  0  0  0  0  0  0  0  0
    9.1025   -2.6960    0.5573 H   0  0  0  0  0  0  0  0  0  0  0  0
    9.1161   -2.7152   -1.2293 H   0  0  0  0  0  0  0  0  0  0  0  0
    7.0264   -3.0609   -0.3499 H   0  0  0  0  0  0  0  0  0  0  0  0
    4.6246   -3.0908   -0.1146 H   0  0  0  0  0  0  0  0  0  0  0  0
  1  2  1  0  0  0  0
  1 23  1  0  0  0  0
  1 24  1  0  0  0  0
  2  3  1  0  0  0  0
  2 22  2  0  0  0  0
  3  4  2  0  0  0  0
  4  5  1  0  0  0  0
  4  6  1  0  0  0  0
  5 25  1  0  0  0  0
  5 26  1  0  0  0  0
  6  7  1  0  0  0  0
  6 21  2  0  0  0  0
  7  8  2  0  0  0  0
  7 27  1  0  0  0  0
  8  9  1  0  0  0  0
  8 19  1  0  0  0  0
  9 10  1  0  0  0  0
  9 18  1  0  0  0  0
 10 11  1  0  0  0  0
 10 28  1  0  0  0  0
 10 29  1  0  0  0  0
 11 12  1  0  0  0  0
 11 30  1  0  0  0  0
 11 31  1  0  0  0  0
 12 13  1  0  0  0  0
 12 17  2  0  0  0  0
 13 14  2  0  0  0  0
 13 32  1  0  0  0  0
 14 15  1  0  0  0  0
 14 33  1  0  0  0  0
 15 16  2  0  0  0  0
 15 34  1  0  0  0  0
 16 17  1  0  0  0  0
 16 35  1  0  0  0  0
 17 18  1  0  0  0  0
 18 36  1  0  0  0  0
 18 37  1  0  0  0  0
 19 20  2  0  0  0  0
 19 38  1  0  0  0  0
 20 21  1  0  0  0  0
 20 39  1  0  0  0  0
 21 22  1  0  0  0  0
M  END
>  <Energy>
-69.074

$$$$

 OpenBabel04232614443D

 28 30  0  0  0  0  0  0  0  0999 V2000
    1.0059    0.0032    0.2142 O   0  0  0  0  0  0  0  0  0  0  0  0
    2.2327    0.0713    0.1449 C   0  0  0  0  0  0  0  0  0  0  0  0
    2.9933   -1.1969    0.1166 C   0  0  0  0  0  0  0  0  0  0  0  0
    2.3420   -2.4354    0.0807 C   0  0  0  0  0  0  0  0  0  0  0  0
    3.0899   -3.6141    0.0476 C   0  0  0  0  0  0  0  0  0  0  0  0
    4.4838   -3.5565    0.0668 C   0  0  0  0  0  0  0  0  0  0  0  0
    5.1320   -2.3214    0.1050 C   0  0  0  0  0  0  0  0  0  0  0  0
    4.3802   -1.1457    0.1121 C   0  0  0  0  0  0  0  0  0  0  0  0
    5.0267    0.0847    0.1057 N   0  0  0  0  0  0  0  0  0  0  0  0
    4.3836    1.2950    0.0696 C   0  0  0  0  0  0  0  0  0  0  0  0
    5.3970    2.6396    0.0983 S   0  0  0  0  0  0  0  0  0  0  0  0
    2.9787    1.2621    0.0629 N   0  0  0  0  0  0  0  0  0  0  0  0
    2.2276    2.4824    0.0090 C   0  0  0  0  0  0  0  0  0  0  0  0
    2.3375    3.3358   -1.0996 C   0  0  0  0  0  0  0  0  0  0  0  0
    1.6470    4.5488   -1.1299 C   0  0  0  0  0  0  0  0  0  0  0  0
    0.8436    4.9173   -0.0520 C   0  0  0  0  0  0  0  0  0  0  0  0
    0.7121    4.0590    1.0390 C   0  0  0  0  0  0  0  0  0  0  0  0
   -0.2690    4.5265    2.3741 Cl  0  0  0  0  0  0  0  0  0  0  0  0
    1.3843    2.8377    1.0691 C   0  0  0  0  0  0  0  0  0  0  0  0
    1.2546   -2.4849    0.0677 H   0  0  0  0  0  0  0  0  0  0  0  0
    2.5852   -4.5769    0.0048 H   0  0  0  0  0  0  0  0  0  0  0  0
    5.0654   -4.4751    0.0478 H   0  0  0  0  0  0  0  0  0  0  0  0
    6.2184   -2.2909    0.1177 H   0  0  0  0  0  0  0  0  0  0  0  0
    6.0407    0.1183    0.1227 H   0  0  0  0  0  0  0  0  0  0  0  0
    2.9538    3.0588   -1.9520 H   0  0  0  0  0  0  0  0  0  0  0  0
    1.7429    5.2077   -1.9892 H   0  0  0  0  0  0  0  0  0  0  0  0
    0.3239    5.8717   -0.0679 H   0  0  0  0  0  0  0  0  0  0  0  0
    1.2754    2.1818    1.9285 H   0  0  0  0  0  0  0  0  0  0  0  0
  1  2  2  0  0  0  0
  2  3  1  0  0  0  0
  2 12  1  0  0  0  0
  3  4  1  0  0  0  0
  3  8  2  0  0  0  0
  4  5  2  0  0  0  0
  4 20  1  0  0  0  0
  5  6  1  0  0  0  0
  5 21  1  0  0  0  0
  6  7  2  0  0  0  0
  6 22  1  0  0  0  0
  7  8  1  0  0  0  0
  7 23  1  0  0  0  0
  8  9  1  0  0  0  0
  9 10  1  0  0  0  0
  9 24  1  0  0  0  0
 10 11  2  0  0  0  0
 10 12  1  0  0  0  0
 12 13  1  0  0  0  0
 13 14  1  0  0  0  0
 13 19  2  0  0  0  0
 14 15  2  0  0  0  0
 14 25  1  0  0  0  0
 15 16  1  0  0  0  0
 15 26  1  0  0  0  0
 16 17  2  0  0  0  0
 16 27  1  0  0  0  0
 17 18  1  0  0  0  0
 17 19  1  0  0  0  0
 19 28  1  0  0  0  0
M  END
>  <Energy>
29.8353

$$$$

 OpenBabel04232614443D

 42 44  0  0  1  0  0  0  0  0999 V2000
    1.6244    0.6654   -1.2860 O   0  0  0  0  0  0  0  0  0  0  0  0
    0.8112    0.2965   -0.4344 C   0  0  0  0  0  0  0  0  0  0  0  0
    0.1551   -0.8880   -0.6003 N   0  0  0  0  0  0  0  0  0  0  0  0
   -0.8907   -1.4049    0.2538 C   0  0  0  0  0  0  0  0  0  0  0  0
   -2.1548   -0.5546    0.1806 C   0  0  0  0  0  0  0  0  0  0  0  0
   -2.0886    0.7357    1.0004 C   0  0  0  0  0  0  0  0  0  0  0  0
   -0.9897    1.7202    0.5889 C   0  0  0  0  0  0  0  0  0  0  0  0
    0.4239    1.1627    0.7739 C   0  0  3  0  0  0  0  0  0  0  0  0
    1.3958    2.2537    0.8599 N   0  0  0  0  0  0  0  0  0  0  0  0
    2.4704    2.1491    1.7222 C   0  0  0  0  0  0  0  0  0  0  0  0
    2.6133    1.1385    2.4069 O   0  0  0  0  0  0  0  0  0  0  0  0
    3.2676    3.3013    1.7953 N   0  0  0  0  0  0  0  0  0  0  0  0
    2.9182    4.5594    1.1186 C   0  0  0  0  0  0  0  0  0  0  0  0
    2.7699    5.6838    2.1246 C   0  0  0  0  0  0  0  0  0  0  0  0
    4.1092    5.9291    2.7958 C   0  0  0  0  0  0  0  0  0  0  0  0
    4.8078    4.6492    3.1795 C   0  0  0  0  0  0  0  0  0  0  0  0
    5.9048    4.7430    4.0553 C   0  0  0  0  0  0  0  0  0  0  0  0
    6.5920    3.6028    4.4586 C   0  0  0  0  0  0  0  0  0  0  0  0
    6.1963    2.3595    3.9814 C   0  0  0  0  0  0  0  0  0  0  0  0
    5.1099    2.2548    3.1060 C   0  0  0  0  0  0  0  0  0  0  0  0
    4.3943    3.3881    2.6932 C   0  0  0  0  0  0  0  0  0  0  0  0
    0.4323   -1.4133   -1.4207 H   0  0  0  0  0  0  0  0  0  0  0  0
   -0.5155   -1.4789    1.2801 H   0  0  0  0  0  0  0  0  0  0  0  0
   -1.1057   -2.4199   -0.0980 H   0  0  0  0  0  0  0  0  0  0  0  0
   -2.9916   -1.1492    0.5654 H   0  0  0  0  0  0  0  0  0  0  0  0
   -2.3895   -0.3160   -0.8639 H   0  0  0  0  0  0  0  0  0  0  0  0
   -1.9713    0.4850    2.0628 H   0  0  0  0  0  0  0  0  0  0  0  0
   -3.0567    1.2460    0.9123 H   0  0  0  0  0  0  0  0  0  0  0  0
   -1.1073    2.6200    1.2078 H   0  0  0  0  0  0  0  0  0  0  0  0
   -1.1488    2.0378   -0.4496 H   0  0  0  0  0  0  0  0  0  0  0  0
    0.4809    0.5614    1.6864 H   0  0  0  0  0  0  0  0  0  0  0  0
    1.6685    2.6026   -0.0510 H   0  0  0  0  0  0  0  0  0  0  0  0
    1.9880    4.4859    0.5520 H   0  0  0  0  0  0  0  0  0  0  0  0
    3.7130    4.7755    0.3926 H   0  0  0  0  0  0  0  0  0  0  0  0
    2.0156    5.4105    2.8731 H   0  0  0  0  0  0  0  0  0  0  0  0
    2.4261    6.5996    1.6319 H   0  0  0  0  0  0  0  0  0  0  0  0
    3.9472    6.5497    3.6853 H   0  0  0  0  0  0  0  0  0  0  0  0
    4.7642    6.4861    2.1147 H   0  0  0  0  0  0  0  0  0  0  0  0
    6.2199    5.7130    4.4341 H   0  0  0  0  0  0  0  0  0  0  0  0
    7.4335    3.6844    5.1411 H   0  0  0  0  0  0  0  0  0  0  0  0
    6.7323    1.4636    4.2841 H   0  0  0  0  0  0  0  0  0  0  0  0
    4.8606    1.2640    2.7365 H   0  0  0  0  0  0  0  0  0  0  0  0
  1  2  2  0  0  0  0
  2  3  1  0  0  0  0
  2  8  1  0  0  0  0
  3  4  1  0  0  0  0
  3 22  1  0  0  0  0
  4  5  1  0  0  0  0
  4 23  1  0  0  0  0
  4 24  1  0  0  0  0
  5  6  1  0  0  0  0
  5 25  1  0  0  0  0
  5 26  1  0  0  0  0
  6  7  1  0  0  0  0
  6 27  1  0  0  0  0
  6 28  1  0  0  0  0
  7  8  1  0  0  0  0
  7 29  1  0  0  0  0
  7 30  1  0  0  0  0
  8  9  1  0  0  0  0
  8 31  1  0  0  0  0
  9 10  1  0  0  0  0
  9 32  1  0  0  0  0
 10 11  2  0  0  0  0
 10 12  1  0  0  0  0
 12 13  1  0  0  0  0
 12 21  1  0  0  0  0
 13 14  1  0  0  0  0
 13 33  1  0  0  0  0
 13 34  1  0  0  0  0
 14 15  1  0  0  0  0
 14 35  1  0  0  0  0
 14 36  1  0  0  0  0
 15 16  1  0  0  0  0
 15 37  1  0  0  0  0
 15 38  1  0  0  0  0
 16 17  1  0  0  0  0
 16 21  2  0  0  0  0
 17 18  2  0  0  0  0
 17 39  1  0  0  0  0
 18 19  1  0  0  0  0
 18 40  1  0  0  0  0
 19 20  2  0  0  0  0
 19 41  1  0  0  0  0
 20 21  1  0  0  0  0
 20 42  1  0  0  0  0
M  END
>  <Energy>
-29.3067

$$$$

 OpenBabel04232614443D

 26 27  0  0  0  0  0  0  0  0999 V2000
    1.0189    0.0236    0.0665 N   0  0  0  0  0  0  0  0  0  0  0  0
    2.1798    0.0810    0.0731 C   0  0  0  0  0  0  0  0  0  0  0  0
    3.6129    0.0996    0.0756 C   0  0  0  0  0  0  0  0  0  0  0  0
    4.3133   -1.1138    0.1085 C   0  0  0  0  0  0  0  0  0  0  0  0
    5.7130   -1.1138    0.0983 C   0  0  0  0  0  0  0  0  0  0  0  0
    6.4326   -2.4075    0.1409 C   0  0  0  0  0  0  0  0  0  0  0  0
    6.0951   -3.2244    0.9926 O   0  0  0  0  0  0  0  0  0  0  0  0
    7.4431   -2.6297   -0.7747 N   0  0  0  0  0  0  0  0  0  0  0  0
    8.2051   -3.8656   -0.7170 C   0  0  0  0  0  0  0  0  0  0  0  0
    9.0410   -3.7798   -1.9480 C   0  0  0  0  0  0  0  0  0  0  0  0
    8.7354   -2.6966   -2.6700 C   0  0  0  0  0  0  0  0  0  0  0  0
    7.6660   -1.8968   -2.0146 C   0  0  0  0  0  0  0  0  0  0  0  0
    6.4190    0.0923    0.1145 C   0  0  0  0  0  0  0  0  0  0  0  0
    5.7220    1.2975    0.0646 C   0  0  0  0  0  0  0  0  0  0  0  0
    6.7066    2.9162    0.0156 Br  0  0  0  0  0  0  0  0  0  0  0  0
    4.3233    1.3054    0.0411 C   0  0  0  0  0  0  0  0  0  0  0  0
    3.6298    2.4853   -0.0125 O   0  0  0  0  0  0  0  0  0  0  0  0
    3.7754   -2.0612    0.1444 H   0  0  0  0  0  0  0  0  0  0  0  0
    7.5312   -4.7271   -0.7406 H   0  0  0  0  0  0  0  0  0  0  0  0
    8.8060   -3.8811    0.1969 H   0  0  0  0  0  0  0  0  0  0  0  0
    9.7903   -4.5115   -2.2126 H   0  0  0  0  0  0  0  0  0  0  0  0
    9.2013   -2.4192   -3.6043 H   0  0  0  0  0  0  0  0  0  0  0  0
    6.7434   -1.8746   -2.6016 H   0  0  0  0  0  0  0  0  0  0  0  0
    8.0124   -0.8827   -1.8082 H   0  0  0  0  0  0  0  0  0  0  0  0
    7.5046    0.0866    0.1757 H   0  0  0  0  0  0  0  0  0  0  0  0
    4.2697    3.2218   -0.0078 H   0  0  0  0  0  0  0  0  0  0  0  0
  1  2  3  0  0  0  0
  2  3  1  0  0  0  0
  3  4  1  0  0  0  0
  3 16  2  0  0  0  0
  4  5  2  0  0  0  0
  4 18  1  0  0  0  0
  5  6  1  0  0  0  0
  5 13  1  0  0  0  0
  6  7  2  0  0  0  0
  6  8  1  0  0  0  0
  8  9  1  0  0  0  0
  8 12  1  0  0  0  0
  9 10  1  0  0  0  0
  9 19  1  0  0  0  0
  9 20  1  0  0  0  0
 10 11  2  0  0  0  0
 10 21  1  0  0  0  0
 11 12  1  0  0  0  0
 11 22  1  0  0  0  0
 12 23  1  0  0  0  0
 12 24  1  0  0  0  0
 13 14  2  0  0  0  0
 13 25  1  0  0  0  0
 14 15  1  0  0  0  0
 14 16  1  0  0  0  0
 16 17  1  0  0  0  0
 17 26  1  0  0  0  0
M  END
>  <Energy>
14.6997

$$$$

 OpenBabel04232614443D

 38 41  0  0  0  0  0  0  0  0999 V2000
    1.4203   -0.0387   -0.0643 C   0  0  0  0  0  0  0  0  0  0  0  0
    2.8614    0.0064    0.0036 N   0  0  0  0  0  0  0  0  0  0  0  0
    3.6911   -1.1004    0.0071 C   0  0  0  0  0  0  0  0  0  0  0  0
    3.4605   -2.4880    0.0179 C   0  0  0  0  0  0  0  0  0  0  0  0
    4.6096   -3.2669    0.0065 C   0  0  0  0  0  0  0  0  0  0  0  0
    5.8995   -2.7397   -0.0126 C   0  0  0  0  0  0  0  0  0  0  0  0
    6.1145   -1.3712   -0.0267 C   0  0  0  0  0  0  0  0  0  0  0  0
    4.9757   -0.5509   -0.0166 C   0  0  0  0  0  0  0  0  0  0  0  0
    4.9263    0.8098   -0.0345 N   0  0  0  0  0  0  0  0  0  0  0  0
    3.6497    1.1460   -0.0007 C   0  0  0  0  0  0  0  0  0  0  0  0
    3.2204    2.5484   -0.0176 C   0  0  0  0  0  0  0  0  0  0  0  0
    3.9736    3.4543   -0.7735 C   0  0  0  0  0  0  0  0  0  0  0  0
    3.6468    4.7981   -0.7362 C   0  0  0  0  0  0  0  0  0  0  0  0
    2.6266    5.2948   -0.0083 N   0  0  0  0  0  0  0  0  0  0  0  0
    1.9222    4.4102    0.7278 C   0  0  0  0  0  0  0  0  0  0  0  0
    2.1762    3.0462    0.7593 C   0  0  0  0  0  0  0  0  0  0  0  0
    6.9134   -3.8620   -0.0102 C   0  0  0  0  0  0  0  0  0  0  0  0
    7.7624   -3.8386    1.2592 C   0  0  0  0  0  0  0  0  0  0  0  0
    7.7767   -3.8474   -1.2700 C   0  0  0  0  0  0  0  0  0  0  0  0
    5.9896   -5.1056   -0.0068 C   0  0  0  0  0  0  0  0  0  0  0  0
    6.3330   -6.2752   -0.0144 O   0  0  0  0  0  0  0  0  0  0  0  0
    4.6749   -4.6506    0.0100 N   0  0  0  0  0  0  0  0  0  0  0  0
    1.0829   -1.0555   -0.2787 H   0  0  0  0  0  0  0  0  0  0  0  0
    1.0801    0.6218   -0.8653 H   0  0  0  0  0  0  0  0  0  0  0  0
    1.0160    0.2726    0.9015 H   0  0  0  0  0  0  0  0  0  0  0  0
    2.4685   -2.9185    0.0340 H   0  0  0  0  0  0  0  0  0  0  0  0
    7.1058   -0.9341   -0.0426 H   0  0  0  0  0  0  0  0  0  0  0  0
    4.8219    3.1182   -1.3626 H   0  0  0  0  0  0  0  0  0  0  0  0
    4.2234    5.5286   -1.2966 H   0  0  0  0  0  0  0  0  0  0  0  0
    1.1288    4.8457    1.3292 H   0  0  0  0  0  0  0  0  0  0  0  0
    1.5926    2.4164    1.4184 H   0  0  0  0  0  0  0  0  0  0  0  0
    8.3432   -2.9123    1.3362 H   0  0  0  0  0  0  0  0  0  0  0  0
    8.4650   -4.6790    1.2789 H   0  0  0  0  0  0  0  0  0  0  0  0
    7.1407   -3.9143    2.1596 H   0  0  0  0  0  0  0  0  0  0  0  0
    8.3612   -2.9233   -1.3449 H   0  0  0  0  0  0  0  0  0  0  0  0
    7.1659   -3.9268   -2.1771 H   0  0  0  0  0  0  0  0  0  0  0  0
    8.4779   -4.6894   -1.2763 H   0  0  0  0  0  0  0  0  0  0  0  0
    3.8881   -5.2817    0.0162 H   0  0  0  0  0  0  0  0  0  0  0  0
  1  2  1  0  0  0  0
  1 23  1  0  0  0  0
  1 24  1  0  0  0  0
  1 25  1  0  0  0  0
  2  3  1  0  0  0  0
  2 10  1  0  0  0  0
  3  4  1  0  0  0  0
  3  8  2  0  0  0  0
  4  5  2  0  0  0  0
  4 26  1  0  0  0  0
  5  6  1  0  0  0  0
  5 22  1  0  0  0  0
  6  7  2  0  0  0  0
  6 17  1  0  0  0  0
  7  8  1  0  0  0  0
  7 27  1  0  0  0  0
  8  9  1  0  0  0  0
  9 10  2  0  0  0  0
 10 11  1  0  0  0  0
 11 12  1  0  0  0  0
 11 16  2  0  0  0  0
 12 13  2  0  0  0  0
 12 28  1  0  0  0  0
 13 14  1  0  0  0  0
 13 29  1  0  0  0  0
 14 15  2  0  0  0  0
 15 16  1  0  0  0  0
 15 30  1  0  0  0  0
 16 31  1  0  0  0  0
 17 18  1  0  0  0  0
 17 19  1  0  0  0  0
 17 20  1  0  0  0  0
 18 32  1  0  0  0  0
 18 33  1  0  0  0  0
 18 34  1  0  0  0  0
 19 35  1  0  0  0  0
 19 36  1  0  0  0  0
 19 37  1  0  0  0  0
 20 21  2  0  0  0  0
 20 22  1  0  0  0  0
 22 38  1  0  0  0  0
M  END
>  <Energy>
28.8382

$$$$

 OpenBabel04232614443D

 32 35  0  0  1  0  0  0  0  0999 V2000
   -2.0638    0.0428   -0.0918 Cl  0  0  0  0  0  0  0  0  0  0  0  0
   -0.3430    0.0446   -0.0551 C   0  0  0  0  0  0  0  0  0  0  0  0
    0.3610    1.0605   -0.7026 C   0  0  0  0  0  0  0  0  0  0  0  0
    1.7588    1.0672   -0.6685 C   0  0  0  0  0  0  0  0  0  0  0  0
    2.4493    0.0565    0.0123 C   0  0  0  0  0  0  0  0  0  0  0  0
    3.9147    0.0538    0.0748 C   0  0  0  0  0  0  0  0  0  0  0  0
    4.5568    0.7119    1.0575 C   0  0  0  0  0  0  0  0  0  0  0  0
    6.0754    0.6533    1.1821 C   0  0  3  0  0  0  0  0  0  0  0  0
    6.5221    0.1863    2.5354 C   0  0  0  0  0  0  0  0  0  0  0  0
    6.7989   -1.0498    3.0889 C   0  0  0  0  0  0  0  0  0  0  0  0
    7.1818   -0.8143    4.4309 C   0  0  0  0  0  0  0  0  0  0  0  0
    7.0995    0.5443    4.6201 C   0  0  0  0  0  0  0  0  0  0  0  0
    6.6905    1.1601    3.4817 O   0  0  0  0  0  0  0  0  0  0  0  0
    6.6663   -0.1797    0.1253 N   0  0  0  0  0  0  0  0  0  0  0  0
    7.9913   -0.3981   -0.0364 N   0  0  0  0  0  0  0  0  0  0  0  0
    7.9807   -1.2125   -1.0974 C   0  0  0  0  0  0  0  0  0  0  0  0
    6.7484   -1.4840   -1.6314 N   0  0  0  0  0  0  0  0  0  0  0  0
    5.9388   -0.8137   -0.8508 C   0  0  0  0  0  0  0  0  0  0  0  0
    4.5998   -0.6809   -0.8674 N   0  0  0  0  0  0  0  0  0  0  0  0
    1.7301   -0.9620    0.6516 C   0  0  0  0  0  0  0  0  0  0  0  0
    0.3346   -0.9677    0.6180 C   0  0  0  0  0  0  0  0  0  0  0  0
   -0.1700    1.8486   -1.2299 H   0  0  0  0  0  0  0  0  0  0  0  0
    2.3029    1.8628   -1.1730 H   0  0  0  0  0  0  0  0  0  0  0  0
    4.0161    1.2796    1.8094 H   0  0  0  0  0  0  0  0  0  0  0  0
    6.4701    1.6613    0.9987 H   0  0  0  0  0  0  0  0  0  0  0  0
    6.7518   -2.0017    2.5775 H   0  0  0  0  0  0  0  0  0  0  0  0
    7.4868   -1.5442    5.1677 H   0  0  0  0  0  0  0  0  0  0  0  0
    7.2922    1.1958    5.4613 H   0  0  0  0  0  0  0  0  0  0  0  0
    8.8998   -1.6224   -1.4967 H   0  0  0  0  0  0  0  0  0  0  0  0
    4.0564   -1.1492   -1.5858 H   0  0  0  0  0  0  0  0  0  0  0  0
    2.2555   -1.7534    1.1827 H   0  0  0  0  0  0  0  0  0  0  0  0
   -0.2141   -1.7597    1.1216 H   0  0  0  0  0  0  0  0  0  0  0  0
  1  2  1  0  0  0  0
  2  3  1  0  0  0  0
  2 21  2  0  0  0  0
  3  4  2  0  0  0  0
  3 22  1  0  0  0  0
  4  5  1  0  0  0  0
  4 23  1  0  0  0  0
  5  6  1  0  0  0  0
  5 20  2  0  0  0  0
  6  7  2  0  0  0  0
  6 19  1  0  0  0  0
  7  8  1  0  0  0  0
  7 24  1  0  0  0  0
  8  9  1  0  0  0  0
  8 14  1  0  0  0  0
  8 25  1  0  0  0  0
  9 10  2  0  0  0  0
  9 13  1  0  0  0  0
 10 11  1  0  0  0  0
 10 26  1  0  0  0  0
 11 12  2  0  0  0  0
 11 27  1  0  0  0  0
 12 13  1  0  0  0  0
 12 28  1  0  0  0  0
 14 15  1  0  0  0  0
 14 18  1  0  0  0  0
 15 16  2  0  0  0  0
 16 17  1  0  0  0  0
 16 29  1  0  0  0  0
 17 18  2  0  0  0  0
 18 19  1  0  0  0  0
 19 30  1  0  0  0  0
 20 21  1  0  0  0  0
 20 31  1  0  0  0  0
 21 32  1  0  0  0  0
M  END
>  <Energy>
37.654

$$$$

 OpenBabel04232614443D

 39 42  0  0  0  0  0  0  0  0999 V2000
    1.0534   -0.0504    0.0671 C   0  0  0  0  0  0  0  0  0  0  0  0
    2.5216    0.0284    0.0768 N   0  0  0  0  0  0  0  0  0  0  0  0
    3.1648    1.2856    0.0729 C   0  0  0  0  0  0  0  0  0  0  0  0
    2.5021    2.5272    0.0678 C   0  0  0  0  0  0  0  0  0  0  0  0
    3.1985    3.7474    0.0654 C   0  0  0  0  0  0  0  0  0  0  0  0
    4.5853    3.7666    0.0651 C   0  0  0  0  0  0  0  0  0  0  0  0
    5.2726    2.5630    0.0686 C   0  0  0  0  0  0  0  0  0  0  0  0
    4.5677    1.3459    0.0746 C   0  0  0  0  0  0  0  0  0  0  0  0
    5.3469    0.0983    0.0872 C   0  0  0  0  0  0  0  0  0  0  0  0
    6.5715    0.1590    0.0899 O   0  0  0  0  0  0  0  0  0  0  0  0
    4.6112   -1.1816    0.0958 C   0  0  0  0  0  0  0  0  0  0  0  0
    5.3274   -2.4745    0.1091 C   0  0  0  0  0  0  0  0  0  0  0  0
    6.5450   -2.6048    0.0691 O   0  0  0  0  0  0  0  0  0  0  0  0
    4.5407   -3.5830    0.1520 N   0  0  0  0  0  0  0  0  0  0  0  0
    3.1861   -3.5090    0.0928 C   0  0  0  0  0  0  0  0  0  0  0  0
    2.4684   -4.8457    0.0329 C   0  0  0  0  0  0  0  0  0  0  0  0
    0.9466   -4.7636   -0.0460 C   0  0  0  0  0  0  0  0  0  0  0  0
    0.4542   -6.1314    0.4221 C   0  0  0  0  0  0  0  0  0  0  0  0
    1.6130   -6.7673    1.1877 C   0  0  0  0  0  0  0  0  0  0  0  0
    2.6855   -5.6907    1.2860 C   0  0  0  0  0  0  0  0  0  0  0  0
    2.5533   -2.3854    0.0634 N   0  0  0  0  0  0  0  0  0  0  0  0
    3.2568   -1.1840    0.0825 C   0  0  0  0  0  0  0  0  0  0  0  0
    0.5256    0.9031    0.0644 H   0  0  0  0  0  0  0  0  0  0  0  0
    0.7001   -0.5887    0.9547 H   0  0  0  0  0  0  0  0  0  0  0  0
    0.7108   -0.5885   -0.8246 H   0  0  0  0  0  0  0  0  0  0  0  0
    1.4216    2.6102    0.0669 H   0  0  0  0  0  0  0  0  0  0  0  0
    2.6467    4.6849    0.0641 H   0  0  0  0  0  0  0  0  0  0  0  0
    5.1286    4.7076    0.0635 H   0  0  0  0  0  0  0  0  0  0  0  0
    6.3616    2.5668    0.0673 H   0  0  0  0  0  0  0  0  0  0  0  0
    5.0360   -4.4631    0.1462 H   0  0  0  0  0  0  0  0  0  0  0  0
    2.8489   -5.3906   -0.8419 H   0  0  0  0  0  0  0  0  0  0  0  0
    0.5998   -4.5320   -1.0583 H   0  0  0  0  0  0  0  0  0  0  0  0
    0.5519   -3.9865    0.6198 H   0  0  0  0  0  0  0  0  0  0  0  0
    0.1799   -6.7592   -0.4332 H   0  0  0  0  0  0  0  0  0  0  0  0
   -0.4361   -6.0314    1.0519 H   0  0  0  0  0  0  0  0  0  0  0  0
    1.9948   -7.6297    0.6278 H   0  0  0  0  0  0  0  0  0  0  0  0
    1.3065   -7.1272    2.1747 H   0  0  0  0  0  0  0  0  0  0  0  0
    3.6899   -6.1231    1.3352 H   0  0  0  0  0  0  0  0  0  0  0  0
    2.5371   -5.0915    2.1928 H   0  0  0  0  0  0  0  0  0  0  0  0
  1  2  1  0  0  0  0
  1 23  1  0  0  0  0
  1 24  1  0  0  0  0
  1 25  1  0  0  0  0
  2  3  1  0  0  0  0
  2 22  1  0  0  0  0
  3  4  1  0  0  0  0
  3  8  2  0  0  0  0
  4  5  2  0  0  0  0
  4 26  1  0  0  0  0
  5  6  1  0  0  0  0
  5 27  1  0  0  0  0
  6  7  2  0  0  0  0
  6 28  1  0  0  0  0
  7  8  1  0  0  0  0
  7 29  1  0  0  0  0
  8  9  1  0  0  0  0
  9 10  2  0  0  0  0
  9 11  1  0  0  0  0
 11 12  1  0  0  0  0
 11 22  2  0  0  0  0
 12 13  2  0  0  0  0
 12 14  1  0  0  0  0
 14 15  1  0  0  0  0
 14 30  1  0  0  0  0
 15 16  1  0  0  0  0
 15 21  2  0  0  0  0
 16 17  1  0  0  0  0
 16 20  1  0  0  0  0
 16 31  1  0  0  0  0
 17 18  1  0  0  0  0
 17 32  1  0  0  0  0
 17 33  1  0  0  0  0
 18 19  1  0  0  0  0
 18 34  1  0  0  0  0
 18 35  1  0  0  0  0
 19 20  1  0  0  0  0
 19 36  1  0  0  0  0
 19 37  1  0  0  0  0
 20 38  1  0  0  0  0
 20 39  1  0  0  0  0
 21 22  1  0  0  0  0
M  END
>  <Energy>
-18.3973

$$$$

 OpenBabel04232614443D

 31 32  0  0  0  0  0  0  0  0999 V2000
    2.9166   -0.0921   -0.0060 C   0  0  0  0  0  0  0  0  0  0  0  0
    1.4189   -0.0087   -0.0090 C   0  0  0  0  0  0  0  0  0  0  0  0
    0.7624    1.2205    0.0308 C   0  0  0  0  0  0  0  0  0  0  0  0
   -0.6335    1.2767    0.0570 C   0  0  0  0  0  0  0  0  0  0  0  0
   -1.4174    0.1076    0.0442 C   0  0  0  0  0  0  0  0  0  0  0  0
   -2.9108    0.2661    0.0917 C   0  0  0  0  0  0  0  0  0  0  0  0
   -0.7529   -1.1317   -0.0351 C   0  0  0  0  0  0  0  0  0  0  0  0
   -1.6131   -2.6935   -0.0649 S   0  0  0  0  0  0  0  0  0  0  0  0
   -0.6125   -3.7509   -0.0272 O   0  0  0  0  0  0  0  0  0  0  0  0
   -2.6105   -2.6420    0.9883 O   0  0  0  0  0  0  0  0  0  0  0  0
   -2.4780   -2.9691   -1.5481 C   0  0  0  0  0  0  0  0  0  0  0  0
   -3.5311   -3.8500   -1.5578 C   0  0  0  0  0  0  0  0  0  0  0  0
   -4.1791   -4.2115   -2.6876 N   0  0  0  0  0  0  0  0  0  0  0  0
   -3.7421   -3.6536   -3.8282 C   0  0  0  0  0  0  0  0  0  0  0  0
   -4.4896   -4.2045   -5.3291 S   0  0  0  0  0  0  0  0  0  0  0  0
   -2.7520   -2.7481   -3.9115 N   0  0  0  0  0  0  0  0  0  0  0  0
   -2.1445   -2.4390   -2.7570 C   0  0  0  0  0  0  0  0  0  0  0  0
   -1.1398   -1.5507   -2.9275 O   0  0  0  0  0  0  0  0  0  0  0  0
    0.6547   -1.1803   -0.0403 C   0  0  0  0  0  0  0  0  0  0  0  0
    3.3744    0.9022   -0.0187 H   0  0  0  0  0  0  0  0  0  0  0  0
    3.2660   -0.6334   -0.8910 H   0  0  0  0  0  0  0  0  0  0  0  0
    3.2627   -0.6113    0.8935 H   0  0  0  0  0  0  0  0  0  0  0  0
    1.3308    2.1480    0.0500 H   0  0  0  0  0  0  0  0  0  0  0  0
   -1.1088    2.2557    0.0977 H   0  0  0  0  0  0  0  0  0  0  0  0
   -3.1877    1.3006    0.3278 H   0  0  0  0  0  0  0  0  0  0  0  0
   -3.3570   -0.3455    0.8780 H   0  0  0  0  0  0  0  0  0  0  0  0
   -3.3537    0.0180   -0.8765 H   0  0  0  0  0  0  0  0  0  0  0  0
   -3.8863   -4.3313   -0.6498 H   0  0  0  0  0  0  0  0  0  0  0  0
   -5.1706   -5.1917   -4.7343 H   0  0  0  0  0  0  0  0  0  0  0  0
   -1.1828   -1.3918   -3.8902 H   0  0  0  0  0  0  0  0  0  0  0  0
    1.1714   -2.1396   -0.0671 H   0  0  0  0  0  0  0  0  0  0  0  0
  1  2  1  0  0  0  0
  1 20  1  0  0  0  0
  1 21  1  0  0  0  0
  1 22  1  0  0  0  0
  2  3  1  0  0  0  0
  2 19  2  0  0  0  0
  3  4  2  0  0  0  0
  3 23  1  0  0  0  0
  4  5  1  0  0  0  0
  4 24  1  0  0  0  0
  5  6  1  0  0  0  0
  5  7  2  0  0  0  0
  6 25  1  0  0  0  0
  6 26  1  0  0  0  0
  6 27  1  0  0  0  0
  7  8  1  0  0  0  0
  7 19  1  0  0  0  0
  8  9  2  0  0  0  0
  8 10  2  0  0  0  0
  8 11  1  0  0  0  0
 11 12  1  0  0  0  0
 11 17  2  0  0  0  0
 12 13  2  0  0  0  0
 12 28  1  0  0  0  0
 13 14  1  0  0  0  0
 14 15  1  0  0  0  0
 14 16  2  0  0  0  0
 15 29  1  0  0  0  0
 16 17  1  0  0  0  0
 17 18  1  0  0  0  0
 18 30  1  0  0  0  0
 19 31  1  0  0  0  0
M  END
>  <Energy>
-28.5551

$$$$

 OpenBabel04232614443D

 41 43  0  0  0  0  0  0  0  0999 V2000
    1.5601    0.5992   -0.9743 O   0  0  0  0  0  0  0  0  0  0  0  0
    2.4323    0.1714   -0.2195 C   0  0  0  0  0  0  0  0  0  0  0  0
    2.9428    1.0694    0.8525 C   0  0  0  0  0  0  0  0  0  0  0  0
    4.3253    1.2643    0.9989 C   0  0  0  0  0  0  0  0  0  0  0  0
    4.8362    2.0663    2.0225 C   0  0  0  0  0  0  0  0  0  0  0  0
    3.9671    2.7589    2.8580 C   0  0  0  0  0  0  0  0  0  0  0  0
    2.5866    2.6583    2.6752 C   0  0  0  0  0  0  0  0  0  0  0  0
    2.0763    1.8089    1.6777 C   0  0  0  0  0  0  0  0  0  0  0  0
    0.7189    1.7020    1.5514 O   0  0  0  0  0  0  0  0  0  0  0  0
    2.9802   -1.1129   -0.3792 N   0  0  0  0  0  0  0  0  0  0  0  0
    2.6571   -1.8666   -1.6026 C   0  0  0  0  0  0  0  0  0  0  0  0
    2.4631   -3.3723   -1.3443 C   0  0  0  0  0  0  0  0  0  0  0  0
    3.5666   -3.9182   -0.5480 N   0  0  0  0  0  0  0  0  0  0  0  0
    4.3772   -4.9995   -0.8816 C   0  0  0  0  0  0  0  0  0  0  0  0
    5.3357   -5.3025   -0.1571 O   0  0  0  0  0  0  0  0  0  0  0  0
    4.0344   -5.8111   -2.1594 C   0  0  0  0  0  0  0  0  0  0  0  0
    4.9720   -7.0151   -2.4769 C   0  0  0  0  0  0  0  0  0  0  0  0
    4.8963   -6.6380   -3.9603 C   0  0  0  0  0  0  0  0  0  0  0  0
    4.4592   -5.2280   -3.5326 C   0  0  0  0  0  0  0  0  0  0  0  0
    3.8086   -3.2023    0.7018 C   0  0  0  0  0  0  0  0  0  0  0  0
    4.0359   -1.7110    0.4537 C   0  0  0  0  0  0  0  0  0  0  0  0
    5.0222    0.7748    0.3252 H   0  0  0  0  0  0  0  0  0  0  0  0
    5.9095    2.1561    2.1582 H   0  0  0  0  0  0  0  0  0  0  0  0
    4.3613    3.3910    3.6500 H   0  0  0  0  0  0  0  0  0  0  0  0
    1.9231    3.2227    3.3201 H   0  0  0  0  0  0  0  0  0  0  0  0
    0.3049    2.4833    1.9394 H   0  0  0  0  0  0  0  0  0  0  0  0
    3.5002   -1.7170   -2.2878 H   0  0  0  0  0  0  0  0  0  0  0  0
    1.7645   -1.4608   -2.0928 H   0  0  0  0  0  0  0  0  0  0  0  0
    2.3503   -3.9008   -2.2921 H   0  0  0  0  0  0  0  0  0  0  0  0
    1.5463   -3.5307   -0.7635 H   0  0  0  0  0  0  0  0  0  0  0  0
    2.9843   -6.1391   -2.1555 H   0  0  0  0  0  0  0  0  0  0  0  0
    4.5708   -8.0004   -2.2233 H   0  0  0  0  0  0  0  0  0  0  0  0
    5.9835   -6.9329   -2.0629 H   0  0  0  0  0  0  0  0  0  0  0  0
    4.1329   -7.1924   -4.5161 H   0  0  0  0  0  0  0  0  0  0  0  0
    5.8431   -6.6893   -4.5047 H   0  0  0  0  0  0  0  0  0  0  0  0
    3.6502   -4.8026   -4.1337 H   0  0  0  0  0  0  0  0  0  0  0  0
    5.2795   -4.5036   -3.4799 H   0  0  0  0  0  0  0  0  0  0  0  0
    4.6604   -3.6138    1.2517 H   0  0  0  0  0  0  0  0  0  0  0  0
    2.9180   -3.3428    1.3295 H   0  0  0  0  0  0  0  0  0  0  0  0
    4.9792   -1.5685   -0.0847 H   0  0  0  0  0  0  0  0  0  0  0  0
    4.1056   -1.2152    1.4239 H   0  0  0  0  0  0  0  0  0  0  0  0
  1  2  2  0  0  0  0
  2  3  1  0  0  0  0
  2 10  1  0  0  0  0
  3  4  1  0  0  0  0
  3  8  2  0  0  0  0
  4  5  2  0  0  0  0
  4 22  1  0  0  0  0
  5  6  1  0  0  0  0
  5 23  1  0  0  0  0
  6  7  2  0  0  0  0
  6 24  1  0  0  0  0
  7  8  1  0  0  0  0
  7 25  1  0  0  0  0
  8  9  1  0  0  0  0
  9 26  1  0  0  0  0
 10 11  1  0  0  0  0
 10 21  1  0  0  0  0
 11 12  1  0  0  0  0
 11 27  1  0  0  0  0
 11 28  1  0  0  0  0
 12 13  1  0  0  0  0
 12 29  1  0  0  0  0
 12 30  1  0  0  0  0
 13 14  1  0  0  0  0
 13 20  1  0  0  0  0
 14 15  2  0  0  0  0
 14 16  1  0  0  0  0
 16 17  1  0  0  0  0
 16 19  1  0  0  0  0
 16 31  1  0  0  0  0
 17 18  1  0  0  0  0
 17 32  1  0  0  0  0
 17 33  1  0  0  0  0
 18 19  1  0  0  0  0
 18 34  1  0  0  0  0
 18 35  1  0  0  0  0
 19 36  1  0  0  0  0
 19 37  1  0  0  0  0
 20 21  1  0  0  0  0
 20 38  1  0  0  0  0
 20 39  1  0  0  0  0
 21 40  1  0  0  0  0
 21 41  1  0  0  0  0
M  END
>  <Energy>
68.3381

$$$$

 OpenBabel04232614443D

 34 36  0  0  0  0  0  0  0  0999 V2000
    0.9689   -0.5192    0.0817 C   0  0  0  0  0  0  0  0  0  0  0  0
    2.4487   -0.3857   -0.1488 C   0  0  0  0  0  0  0  0  0  0  0  0
    3.0532    0.8572    0.1031 C   0  0  0  0  0  0  0  0  0  0  0  0
    4.4201    1.0081   -0.0772 C   0  0  0  0  0  0  0  0  0  0  0  0
    5.2047   -0.0668   -0.4872 C   0  0  0  0  0  0  0  0  0  0  0  0
    4.6359   -1.3045   -0.7495 C   0  0  0  0  0  0  0  0  0  0  0  0
    3.2545   -1.4619   -0.5706 C   0  0  0  0  0  0  0  0  0  0  0  0
    2.5747   -3.0183   -0.8889 Cl  0  0  0  0  0  0  0  0  0  0  0  0
    6.6269    0.3537   -0.6738 C   0  0  0  0  0  0  0  0  0  0  0  0
    6.6269    1.7391   -0.0085 C   0  0  0  0  0  0  0  0  0  0  0  0
    5.2157    2.1660    0.0873 N   0  0  0  0  0  0  0  0  0  0  0  0
    4.6982    3.4302    0.3014 C   0  0  0  0  0  0  0  0  0  0  0  0
    3.4863    3.6404    0.3372 O   0  0  0  0  0  0  0  0  0  0  0  0
    5.6269    4.4445    0.4239 N   0  0  0  0  0  0  0  0  0  0  0  0
    5.3245    5.8265    0.5341 C   0  0  0  0  0  0  0  0  0  0  0  0
    4.0509    6.3389    0.7837 C   0  0  0  0  0  0  0  0  0  0  0  0
    3.8368    7.7153    0.7990 C   0  0  0  0  0  0  0  0  0  0  0  0
    4.9136    8.5508    0.5771 C   0  0  0  0  0  0  0  0  0  0  0  0
    6.1717    8.1063    0.3710 N   0  0  0  0  0  0  0  0  0  0  0  0
    6.3438    6.7604    0.3591 C   0  0  0  0  0  0  0  0  0  0  0  0
    0.4930    0.4631    0.1859 H   0  0  0  0  0  0  0  0  0  0  0  0
    0.7814   -1.0818    1.0012 H   0  0  0  0  0  0  0  0  0  0  0  0
    0.4811   -1.0148   -0.7627 H   0  0  0  0  0  0  0  0  0  0  0  0
    2.4376    1.6820    0.4472 H   0  0  0  0  0  0  0  0  0  0  0  0
    5.2462   -2.1322   -1.0972 H   0  0  0  0  0  0  0  0  0  0  0  0
    6.8465    0.4435   -1.7435 H   0  0  0  0  0  0  0  0  0  0  0  0
    7.3418   -0.3270   -0.2042 H   0  0  0  0  0  0  0  0  0  0  0  0
    7.2350    2.4572   -0.5651 H   0  0  0  0  0  0  0  0  0  0  0  0
    7.0133    1.6787    1.0172 H   0  0  0  0  0  0  0  0  0  0  0  0
    6.5940    4.2085    0.2792 H   0  0  0  0  0  0  0  0  0  0  0  0
    3.1950    5.7004    0.9741 H   0  0  0  0  0  0  0  0  0  0  0  0
    2.8420    8.1171    0.9692 H   0  0  0  0  0  0  0  0  0  0  0  0
    4.7891    9.6299    0.5605 H   0  0  0  0  0  0  0  0  0  0  0  0
    7.3681    6.4523    0.1726 H   0  0  0  0  0  0  0  0  0  0  0  0
  1  2  1  0  0  0  0
  1 21  1  0  0  0  0
  1 22  1  0  0  0  0
  1 23  1  0  0  0  0
  2  3  1  0  0  0  0
  2  7  2  0  0  0  0
  3  4  2  0  0  0  0
  3 24  1  0  0  0  0
  4  5  1  0  0  0  0
  4 11  1  0  0  0  0
  5  6  2  0  0  0  0
  5  9  1  0  0  0  0
  6  7  1  0  0  0  0
  6 25  1  0  0  0  0
  7  8  1  0  0  0  0
  9 10  1  0  0  0  0
  9 26  1  0  0  0  0
  9 27  1  0  0  0  0
 10 11  1  0  0  0  0
 10 28  1  0  0  0  0
 10 29  1  0  0  0  0
 11 12  1  0  0  0  0
 12 13  2  0  0  0  0
 12 14  1  0  0  0  0
 14 15  1  0  0  0  0
 14 30  1  0  0  0  0
 15 16  1  0  0  0  0
 15 20  2  0  0  0  0
 16 17  2  0  0  0  0
 16 31  1  0  0  0  0
 17 18  1  0  0  0  0
 17 32  1  0  0  0  0
 18 19  2  0  0  0  0
 18 33  1  0  0  0  0
 19 20  1  0  0  0  0
 20 34  1  0  0  0  0
M  END
>  <Energy>
14.4831

$$$$

 OpenBabel04232614443D

 32 35  0  0  0  0  0  0  0  0999 V2000
    1.2262   -0.4994    0.2202 O   0  0  0  0  0  0  0  0  0  0  0  0
    2.4385   -0.4323    0.1644 C   0  0  0  0  0  0  0  0  0  0  0  0
    3.2182    0.7090    0.2637 N   0  0  0  0  0  0  0  0  0  0  0  0
    4.5587    0.4234    0.0189 C   0  0  0  0  0  0  0  0  0  0  0  0
    5.5995    1.3295   -0.0219 C   0  0  0  0  0  0  0  0  0  0  0  0
    6.8544    0.8480   -0.3989 C   0  0  0  0  0  0  0  0  0  0  0  0
    7.0196   -0.4951   -0.7774 C   0  0  0  0  0  0  0  0  0  0  0  0
    5.9439   -1.3893   -0.7328 C   0  0  0  0  0  0  0  0  0  0  0  0
    4.7276   -0.9381   -0.2537 C   0  0  0  0  0  0  0  0  0  0  0  0
    3.4216   -1.5641   -0.0242 C   0  0  0  0  0  0  0  0  0  0  0  0
    2.9988   -2.8279    0.1483 C   0  0  0  0  0  0  0  0  0  0  0  0
    1.6713   -3.2533    0.2076 N   0  0  0  0  0  0  0  0  0  0  0  0
    1.6107   -4.6181   -0.0620 C   0  0  0  0  0  0  0  0  0  0  0  0
    0.4971   -5.4290   -0.1301 C   0  0  0  0  0  0  0  0  0  0  0  0
    0.6899   -6.8114   -0.2636 C   0  0  0  0  0  0  0  0  0  0  0  0
    1.9841   -7.3644   -0.3096 C   0  0  0  0  0  0  0  0  0  0  0  0
    3.1082   -6.5444   -0.2109 C   0  0  0  0  0  0  0  0  0  0  0  0
    2.8882   -5.1844   -0.0907 C   0  0  0  0  0  0  0  0  0  0  0  0
    3.8471   -4.0996    0.2096 C   0  0  0  0  0  0  0  0  0  0  0  0
    5.0372   -4.4007    0.6014 N   0  0  0  0  0  0  0  0  0  0  0  0
    5.6624   -3.3351    1.2437 O   0  0  0  0  0  0  0  0  0  0  0  0
    2.8283    1.6269    0.4082 H   0  0  0  0  0  0  0  0  0  0  0  0
    5.4577    2.3749    0.2270 H   0  0  0  0  0  0  0  0  0  0  0  0
    7.7092    1.5202   -0.4227 H   0  0  0  0  0  0  0  0  0  0  0  0
    7.9957   -0.8472   -1.1047 H   0  0  0  0  0  0  0  0  0  0  0  0
    6.0781   -2.4184   -1.0508 H   0  0  0  0  0  0  0  0  0  0  0  0
    0.9356   -2.6034   -0.0519 H   0  0  0  0  0  0  0  0  0  0  0  0
   -0.5034   -5.0171   -0.0525 H   0  0  0  0  0  0  0  0  0  0  0  0
   -0.1736   -7.4722   -0.3044 H   0  0  0  0  0  0  0  0  0  0  0  0
    2.1077   -8.4426   -0.3856 H   0  0  0  0  0  0  0  0  0  0  0  0
    4.1117   -6.9539   -0.1892 H   0  0  0  0  0  0  0  0  0  0  0  0
    6.5370   -3.7035    1.4655 H   0  0  0  0  0  0  0  0  0  0  0  0
  1  2  2  0  0  0  0
  2  3  1  0  0  0  0
  2 10  1  0  0  0  0
  3  4  1  0  0  0  0
  3 22  1  0  0  0  0
  4  5  1  0  0  0  0
  4  9  2  0  0  0  0
  5  6  2  0  0  0  0
  5 23  1  0  0  0  0
  6  7  1  0  0  0  0
  6 24  1  0  0  0  0
  7  8  2  0  0  0  0
  7 25  1  0  0  0  0
  8  9  1  0  0  0  0
  8 26  1  0  0  0  0
  9 10  1  0  0  0  0
 10 11  2  0  0  0  0
 11 12  1  0  0  0  0
 11 19  1  0  0  0  0
 12 13  1  0  0  0  0
 12 27  1  0  0  0  0
 13 14  1  0  0  0  0
 13 18  2  0  0  0  0
 14 15  2  0  0  0  0
 14 28  1  0  0  0  0
 15 16  1  0  0  0  0
 15 29  1  0  0  0  0
 16 17  2  0  0  0  0
 16 30  1  0  0  0  0
 17 18  1  0  0  0  0
 17 31  1  0  0  0  0
 18 19  1  0  0  0  0
 19 20  2  0  0  0  0
 20 21  1  0  0  0  0
 21 32  1  0  0  0  0
M  END
>  <Energy>
102.364

$$$$

 OpenBabel04232614443D

 41 44  0  0  1  0  0  0  0  0999 V2000
    0.7805    0.3620   -0.5152 C   0  0  0  0  0  0  0  0  0  0  0  0
    2.2975    0.2355   -0.3367 C   0  0  3  0  0  0  0  0  0  0  0  0
    3.0625    1.0781   -1.3770 C   0  0  0  0  0  0  0  0  0  0  0  0
    3.0232    0.4633   -2.7810 C   0  0  0  0  0  0  0  0  0  0  0  0
    3.4605   -1.0001   -2.7339 C   0  0  0  0  0  0  0  0  0  0  0  0
    2.6220   -1.7275   -1.7822 N   0  0  0  0  0  0  0  0  0  0  0  0
    1.7160   -2.7546   -2.0545 C   0  0  0  0  0  0  0  0  0  0  0  0
    1.1943   -3.3926   -1.1383 O   0  0  0  0  0  0  0  0  0  0  0  0
    1.3903   -3.0675   -3.4348 C   0  0  0  0  0  0  0  0  0  0  0  0
    1.0077   -4.2980   -3.9510 C   0  0  0  0  0  0  0  0  0  0  0  0
    0.8303   -4.1697   -5.3550 C   0  0  0  0  0  0  0  0  0  0  0  0
    0.5126   -5.0616   -6.3973 C   0  0  0  0  0  0  0  0  0  0  0  0
    0.4543   -4.5868   -7.7166 C   0  0  0  0  0  0  0  0  0  0  0  0
    0.7090   -3.2368   -8.0082 C   0  0  0  0  0  0  0  0  0  0  0  0
    0.6836   -2.7024   -9.3022 C   0  0  0  0  0  0  0  0  0  0  0  0
    0.9614   -1.3493   -9.4975 C   0  0  0  0  0  0  0  0  0  0  0  0
    1.2563   -0.5609   -8.3925 C   0  0  0  0  0  0  0  0  0  0  0  0
    1.2864   -1.0185   -7.1216 N   0  0  0  0  0  0  0  0  0  0  0  0
    1.0121   -2.3376   -6.9700 C   0  0  0  0  0  0  0  0  0  0  0  0
    1.0540   -2.8334   -5.6648 C   0  0  0  0  0  0  0  0  0  0  0  0
    1.2837   -2.1796   -4.4796 N   0  0  0  0  0  0  0  0  0  0  0  0
    2.7360   -1.2372   -0.4096 C   0  0  0  0  0  0  0  0  0  0  0  0
    0.4692    1.4097   -0.4529 H   0  0  0  0  0  0  0  0  0  0  0  0
    0.2555   -0.1906    0.2711 H   0  0  0  0  0  0  0  0  0  0  0  0
    0.4414   -0.0309   -1.4788 H   0  0  0  0  0  0  0  0  0  0  0  0
    2.5419    0.6199    0.6617 H   0  0  0  0  0  0  0  0  0  0  0  0
    4.1115    1.1540   -1.0619 H   0  0  0  0  0  0  0  0  0  0  0  0
    2.6695    2.1008   -1.4069 H   0  0  0  0  0  0  0  0  0  0  0  0
    3.6754    1.0290   -3.4544 H   0  0  0  0  0  0  0  0  0  0  0  0
    2.0054    0.5414   -3.1796 H   0  0  0  0  0  0  0  0  0  0  0  0
    4.4964   -1.0679   -2.3773 H   0  0  0  0  0  0  0  0  0  0  0  0
    3.4622   -1.4516   -3.7256 H   0  0  0  0  0  0  0  0  0  0  0  0
    0.9126   -5.2050   -3.3673 H   0  0  0  0  0  0  0  0  0  0  0  0
    0.3252   -6.1101   -6.1838 H   0  0  0  0  0  0  0  0  0  0  0  0
    0.2158   -5.2847   -8.5157 H   0  0  0  0  0  0  0  0  0  0  0  0
    0.4521   -3.3324  -10.1562 H   0  0  0  0  0  0  0  0  0  0  0  0
    0.9492   -0.9185  -10.4929 H   0  0  0  0  0  0  0  0  0  0  0  0
    1.4836    0.4955   -8.5095 H   0  0  0  0  0  0  0  0  0  0  0  0
    1.4023   -1.1784   -4.4292 H   0  0  0  0  0  0  0  0  0  0  0  0
    3.7889   -1.3309   -0.1138 H   0  0  0  0  0  0  0  0  0  0  0  0
    2.1534   -1.8423    0.2919 H   0  0  0  0  0  0  0  0  0  0  0  0
  1  2  1  0  0  0  0
  1 23  1  0  0  0  0
  1 24  1  0  0  0  0
  1 25  1  0  0  0  0
  2  3  1  0  0  0  0
  2 22  1  0  0  0  0
  2 26  1  0  0  0  0
  3  4  1  0  0  0  0
  3 27  1  0  0  0  0
  3 28  1  0  0  0  0
  4  5  1  0  0  0  0
  4 29  1  0  0  0  0
  4 30  1  0  0  0  0
  5  6  1  0  0  0  0
  5 31  1  0  0  0  0
  5 32  1  0  0  0  0
  6  7  1  0  0  0  0
  6 22  1  0  0  0  0
  7  8  2  0  0  0  0
  7  9  1  0  0  0  0
  9 10  2  0  0  0  0
  9 21  1  0  0  0  0
 10 11  1  0  0  0  0
 10 33  1  0  0  0  0
 11 12  1  0  0  0  0
 11 20  2  0  0  0  0
 12 13  2  0  0  0  0
 12 34  1  0  0  0  0
 13 14  1  0  0  0  0
 13 35  1  0  0  0  0
 14 15  1  0  0  0  0
 14 19  2  0  0  0  0
 15 16  2  0  0  0  0
 15 36  1  0  0  0  0
 16 17  1  0  0  0  0
 16 37  1  0  0  0  0
 17 18  2  0  0  0  0
 17 38  1  0  0  0  0
 18 19  1  0  0  0  0
 19 20  1  0  0  0  0
 20 21  1  0  0  0  0
 21 39  1  0  0  0  0
 22 40  1  0  0  0  0
 22 41  1  0  0  0  0
M  END
>  <Energy>
13.8205

$$$$

 OpenBabel04232614443D

 39 40  0  0  0  0  0  0  0  0999 V2000
    2.8423    1.1890    0.2176 O   0  0  0  0  0  0  0  0  0  0  0  0
    2.2806    0.1017    0.1986 C   0  0  0  0  0  0  0  0  0  0  0  0
    0.9062   -0.0986    0.2199 N   0  0  0  0  0  0  0  0  0  0  0  0
    0.0853    0.9735    0.3748 N   0  0  0  0  0  0  0  0  0  0  0  0
   -1.1903    0.7674    0.3016 C   0  0  0  0  0  0  0  0  0  0  0  0
   -2.1264    1.8903    0.4982 C   0  0  0  0  0  0  0  0  0  0  0  0
   -1.6484    3.1666    0.8233 C   0  0  0  0  0  0  0  0  0  0  0  0
   -2.5446    4.2187    1.0202 C   0  0  0  0  0  0  0  0  0  0  0  0
   -3.9172    4.0014    0.8904 C   0  0  0  0  0  0  0  0  0  0  0  0
   -4.3938    2.7289    0.5654 C   0  0  0  0  0  0  0  0  0  0  0  0
   -3.4961    1.6800    0.3727 C   0  0  0  0  0  0  0  0  0  0  0  0
   -3.9758    0.4668    0.0638 F   0  0  0  0  0  0  0  0  0  0  0  0
    3.0607   -1.2361    0.1109 C   0  0  0  0  0  0  0  0  0  0  0  0
    2.3964   -2.2445   -0.1369 O   0  0  0  0  0  0  0  0  0  0  0  0
    4.4524   -1.2539    0.3139 N   0  0  0  0  0  0  0  0  0  0  0  0
    5.1678   -2.4966    0.0432 C   0  0  0  0  0  0  0  0  0  0  0  0
    5.4260   -3.2931    1.3190 C   0  0  0  0  0  0  0  0  0  0  0  0
    6.5957   -2.7730    2.1526 C   0  0  0  0  0  0  0  0  0  0  0  0
    6.4828   -1.3116    2.5814 C   0  0  0  0  0  0  0  0  0  0  0  0
    6.5652   -0.3393    1.4058 C   0  0  0  0  0  0  0  0  0  0  0  0
    5.2104   -0.0788    0.7464 C   0  0  0  0  0  0  0  0  0  0  0  0
    0.5433   -1.0443    0.1170 H   0  0  0  0  0  0  0  0  0  0  0  0
   -1.6158   -0.2310    0.0910 H   0  0  0  0  0  0  0  0  0  0  0  0
   -0.5794    3.3453    0.9266 H   0  0  0  0  0  0  0  0  0  0  0  0
   -2.1680    5.2076    1.2742 H   0  0  0  0  0  0  0  0  0  0  0  0
   -4.6124    4.8231    1.0438 H   0  0  0  0  0  0  0  0  0  0  0  0
   -5.4595    2.5520    0.4622 H   0  0  0  0  0  0  0  0  0  0  0  0
    6.0935   -2.2735   -0.4989 H   0  0  0  0  0  0  0  0  0  0  0  0
    4.5645   -3.1146   -0.6317 H   0  0  0  0  0  0  0  0  0  0  0  0
    5.6528   -4.3299    1.0412 H   0  0  0  0  0  0  0  0  0  0  0  0
    4.5199   -3.3225    1.9363 H   0  0  0  0  0  0  0  0  0  0  0  0
    7.5301   -2.9158    1.5951 H   0  0  0  0  0  0  0  0  0  0  0  0
    6.6788   -3.3942    3.0529 H   0  0  0  0  0  0  0  0  0  0  0  0
    7.3177   -1.0991    3.2606 H   0  0  0  0  0  0  0  0  0  0  0  0
    5.5634   -1.1508    3.1570 H   0  0  0  0  0  0  0  0  0  0  0  0
    7.3004   -0.6846    0.6697 H   0  0  0  0  0  0  0  0  0  0  0  0
    6.9398    0.6238    1.7763 H   0  0  0  0  0  0  0  0  0  0  0  0
    5.3598    0.5506   -0.1389 H   0  0  0  0  0  0  0  0  0  0  0  0
    4.6063    0.4811    1.4661 H   0  0  0  0  0  0  0  0  0  0  0  0
  1  2  2  0  0  0  0
  2  3  1  0  0  0  0
  2 13  1  0  0  0  0
  3  4  1  0  0  0  0
  3 22  1  0  0  0  0
  4  5  2  0  0  0  0
  5  6  1  0  0  0  0
  5 23  1  0  0  0  0
  6  7  1  0  0  0  0
  6 11  2  0  0  0  0
  7  8  2  0  0  0  0
  7 24  1  0  0  0  0
  8  9  1  0  0  0  0
  8 25  1  0  0  0  0
  9 10  2  0  0  0  0
  9 26  1  0  0  0  0
 10 11  1  0  0  0  0
 10 27  1  0  0  0  0
 11 12  1  0  0  0  0
 13 14  2  0  0  0  0
 13 15  1  0  0  0  0
 15 16  1  0  0  0  0
 15 21  1  0  0  0  0
 16 17  1  0  0  0  0
 16 28  1  0  0  0  0
 16 29  1  0  0  0  0
 17 18  1  0  0  0  0
 17 30  1  0  0  0  0
 17 31  1  0  0  0  0
 18 19  1  0  0  0  0
 18 32  1  0  0  0  0
 18 33  1  0  0  0  0
 19 20  1  0  0  0  0
 19 34  1  0  0  0  0
 19 35  1  0  0  0  0
 20 21  1  0  0  0  0
 20 36  1  0  0  0  0
 20 37  1  0  0  0  0
 21 38  1  0  0  0  0
 21 39  1  0  0  0  0
M  END
>  <Energy>
107.3

$$$$

 OpenBabel04232614443D

 34 36  0  0  0  0  0  0  0  0999 V2000
    2.5822    0.5048   -1.0245 O   0  0  0  0  0  0  0  0  0  0  0  0
    3.0220    0.6007    0.1151 C   0  0  0  0  0  0  0  0  0  0  0  0
    2.2505    1.4034    1.1070 C   0  0  0  0  0  0  0  0  0  0  0  0
    1.8055    2.6296    0.7944 C   0  0  0  0  0  0  0  0  0  0  0  0
    1.4620    3.5246    1.9009 C   0  0  0  0  0  0  0  0  0  0  0  0
    2.3720    4.5369    2.2326 C   0  0  0  0  0  0  0  0  0  0  0  0
    2.1875    5.3017    3.3823 C   0  0  0  0  0  0  0  0  0  0  0  0
    1.0882    5.0650    4.2055 C   0  0  0  0  0  0  0  0  0  0  0  0
    0.1628    4.0751    3.8687 C   0  0  0  0  0  0  0  0  0  0  0  0
    0.3472    3.3058    2.7152 C   0  0  0  0  0  0  0  0  0  0  0  0
    4.1944    0.0186    0.6196 N   0  0  0  0  0  0  0  0  0  0  0  0
    4.6637    0.3591    1.8900 C   0  0  0  0  0  0  0  0  0  0  0  0
    4.6833    1.4833    2.3814 O   0  0  0  0  0  0  0  0  0  0  0  0
    5.3336   -0.7726    2.6557 C   0  0  0  0  0  0  0  0  0  0  0  0
    5.1869   -0.9011    3.8622 O   0  0  0  0  0  0  0  0  0  0  0  0
    6.1311   -1.5790    1.8979 N   0  0  0  0  0  0  0  0  0  0  0  0
    6.0885   -1.5448    0.5029 C   0  0  0  0  0  0  0  0  0  0  0  0
    7.0549   -2.2681   -0.1967 C   0  0  0  0  0  0  0  0  0  0  0  0
    7.0180   -2.2933   -1.5851 C   0  0  0  0  0  0  0  0  0  0  0  0
    5.9803   -1.6541   -2.2584 C   0  0  0  0  0  0  0  0  0  0  0  0
    4.9998   -0.9434   -1.5526 C   0  0  0  0  0  0  0  0  0  0  0  0
    5.0605   -0.8340   -0.1583 C   0  0  0  0  0  0  0  0  0  0  0  0
    2.2197    1.0480    2.1334 H   0  0  0  0  0  0  0  0  0  0  0  0
    1.8831    3.0478   -0.2042 H   0  0  0  0  0  0  0  0  0  0  0  0
    3.2622    4.6969    1.6282 H   0  0  0  0  0  0  0  0  0  0  0  0
    2.9203    6.0571    3.6539 H   0  0  0  0  0  0  0  0  0  0  0  0
    0.9615    5.6391    5.1177 H   0  0  0  0  0  0  0  0  0  0  0  0
   -0.6840    3.8831    4.5178 H   0  0  0  0  0  0  0  0  0  0  0  0
   -0.3599    2.5152    2.4818 H   0  0  0  0  0  0  0  0  0  0  0  0
    6.7144   -2.2404    2.3935 H   0  0  0  0  0  0  0  0  0  0  0  0
    7.8560   -2.7835    0.3266 H   0  0  0  0  0  0  0  0  0  0  0  0
    7.7952   -2.8109   -2.1422 H   0  0  0  0  0  0  0  0  0  0  0  0
    5.9425   -1.6858   -3.3458 H   0  0  0  0  0  0  0  0  0  0  0  0
    4.2361   -0.4471   -2.1432 H   0  0  0  0  0  0  0  0  0  0  0  0
  1  2  2  0  0  0  0
  2  3  1  0  0  0  0
  2 11  1  0  0  0  0
  3  4  2  0  0  0  0
  3 23  1  0  0  0  0
  4  5  1  0  0  0  0
  4 24  1  0  0  0  0
  5  6  1  0  0  0  0
  5 10  2  0  0  0  0
  6  7  2  0  0  0  0
  6 25  1  0  0  0  0
  7  8  1  0  0  0  0
  7 26  1  0  0  0  0
  8  9  2  0  0  0  0
  8 27  1  0  0  0  0
  9 10  1  0  0  0  0
  9 28  1  0  0  0  0
 10 29  1  0  0  0  0
 11 12  1  0  0  0  0
 11 22  1  0  0  0  0
 12 13  2  0  0  0  0
 12 14  1  0  0  0  0
 14 15  2  0  0  0  0
 14 16  1  0  0  0  0
 16 17  1  0  0  0  0
 16 30  1  0  0  0  0
 17 18  1  0  0  0  0
 17 22  2  0  0  0  0
 18 19  2  0  0  0  0
 18 31  1  0  0  0  0
 19 20  1  0  0  0  0
 19 32  1  0  0  0  0
 20 21  2  0  0  0  0
 20 33  1  0  0  0  0
 21 22  1  0  0  0  0
 21 34  1  0  0  0  0
M  END
>  <Energy>
82.8838

$$$$

 OpenBabel04232614443D

 30 32  0  0  0  0  0  0  0  0999 V2000
    0.9906    0.2782    0.1146 O   0  0  0  0  0  0  0  0  0  0  0  0
    2.1938    0.0327    0.0364 C   0  0  0  0  0  0  0  0  0  0  0  0
    2.8064   -1.0091    0.6987 N   0  0  0  0  0  0  0  0  0  0  0  0
    2.1392   -1.9842    1.4799 C   0  0  0  0  0  0  0  0  0  0  0  0
    0.7762   -2.2600    1.3458 C   0  0  0  0  0  0  0  0  0  0  0  0
    0.1168   -3.1562    2.1946 C   0  0  0  0  0  0  0  0  0  0  0  0
    0.8753   -3.7900    3.1817 C   0  0  0  0  0  0  0  0  0  0  0  0
    0.4206   -4.8983    4.4177 S   0  0  0  0  0  0  0  0  0  0  0  0
    1.9774   -5.0408    5.0073 N   0  0  0  0  0  0  0  0  0  0  0  0
    2.8517   -4.3067    4.3404 N   0  0  0  0  0  0  0  0  0  0  0  0
    2.2506   -3.5854    3.3140 C   0  0  0  0  0  0  0  0  0  0  0  0
    2.8912   -2.6828    2.4357 C   0  0  0  0  0  0  0  0  0  0  0  0
    3.0366    0.8484   -0.7046 N   0  0  0  0  0  0  0  0  0  0  0  0
    2.4837    2.0957   -1.2475 C   0  0  0  0  0  0  0  0  0  0  0  0
    3.2442    3.3224   -0.7450 C   0  0  0  0  0  0  0  0  0  0  0  0
    5.0036    3.2796   -1.2334 S   0  0  0  0  0  0  0  0  0  0  0  0
    5.4057    1.6070   -0.6214 C   0  0  0  0  0  0  0  0  0  0  0  0
    4.4138    0.5523   -1.1166 C   0  0  0  0  0  0  0  0  0  0  0  0
    3.7835   -0.8772    0.9062 H   0  0  0  0  0  0  0  0  0  0  0  0
    0.1791   -1.7751    0.5767 H   0  0  0  0  0  0  0  0  0  0  0  0
   -0.9499   -3.3302    2.0942 H   0  0  0  0  0  0  0  0  0  0  0  0
    3.9573   -2.5208    2.5529 H   0  0  0  0  0  0  0  0  0  0  0  0
    1.4321    2.2146   -0.9665 H   0  0  0  0  0  0  0  0  0  0  0  0
    2.5094    2.0293   -2.3417 H   0  0  0  0  0  0  0  0  0  0  0  0
    3.1931    3.3857    0.3476 H   0  0  0  0  0  0  0  0  0  0  0  0
    2.7950    4.2330   -1.1532 H   0  0  0  0  0  0  0  0  0  0  0  0
    5.4192    1.6374    0.4730 H   0  0  0  0  0  0  0  0  0  0  0  0
    6.4150    1.3570   -0.9624 H   0  0  0  0  0  0  0  0  0  0  0  0
    4.7280   -0.4352   -0.7705 H   0  0  0  0  0  0  0  0  0  0  0  0
    4.4224    0.5033   -2.2131 H   0  0  0  0  0  0  0  0  0  0  0  0
  1  2  2  0  0  0  0
  2  3  1  0  0  0  0
  2 13  1  0  0  0  0
  3  4  1  0  0  0  0
  3 19  1  0  0  0  0
  4  5  1  0  0  0  0
  4 12  2  0  0  0  0
  5  6  2  0  0  0  0
  5 20  1  0  0  0  0
  6  7  1  0  0  0  0
  6 21  1  0  0  0  0
  7  8  1  0  0  0  0
  7 11  2  0  0  0  0
  8  9  1  0  0  0  0
  9 10  2  0  0  0  0
 10 11  1  0  0  0  0
 11 12  1  0  0  0  0
 12 22  1  0  0  0  0
 13 14  1  0  0  0  0
 13 18  1  0  0  0  0
 14 15  1  0  0  0  0
 14 23  1  0  0  0  0
 14 24  1  0  0  0  0
 15 16  1  0  0  0  0
 15 25  1  0  0  0  0
 15 26  1  0  0  0  0
 16 17  1  0  0  0  0
 17 18  1  0  0  0  0
 17 27  1  0  0  0  0
 17 28  1  0  0  0  0
 18 29  1  0  0  0  0
 18 30  1  0  0  0  0
M  END
>  <Energy>
-9.81987

$$$$

 OpenBabel04232614443D

 29 31  0  0  0  0  0  0  0  0999 V2000
    0.9780    0.0660    0.1468 O   0  0  0  0  0  0  0  0  0  0  0  0
    2.2031    0.0602    0.0750 C   0  0  0  0  0  0  0  0  0  0  0  0
    2.9345   -1.2206   -0.0118 C   0  0  0  0  0  0  0  0  0  0  0  0
    2.1850   -2.3821   -0.0389 O   0  0  0  0  0  0  0  0  0  0  0  0
    4.2766   -1.1871   -0.0749 C   0  0  0  0  0  0  0  0  0  0  0  0
    5.0447   -2.4359   -0.1716 C   0  0  0  0  0  0  0  0  0  0  0  0
    5.3509   -2.9543   -1.4385 C   0  0  0  0  0  0  0  0  0  0  0  0
    5.9676   -4.2011   -1.5633 C   0  0  0  0  0  0  0  0  0  0  0  0
    6.2886   -4.9379   -0.4240 C   0  0  0  0  0  0  0  0  0  0  0  0
    6.0104   -4.4244    0.8436 C   0  0  0  0  0  0  0  0  0  0  0  0
    5.3926   -3.1785    0.9656 C   0  0  0  0  0  0  0  0  0  0  0  0
    5.1092   -2.6778    2.2084 O   0  0  0  0  0  0  0  0  0  0  0  0
    5.0445   -0.0326   -0.0792 O   0  0  0  0  0  0  0  0  0  0  0  0
    4.3931    1.1761   -0.0338 C   0  0  0  0  0  0  0  0  0  0  0  0
    5.1742    2.3313   -0.0814 C   0  0  0  0  0  0  0  0  0  0  0  0
    4.5598    3.5882   -0.0621 C   0  0  0  0  0  0  0  0  0  0  0  0
    3.1686    3.6844    0.0122 C   0  0  0  0  0  0  0  0  0  0  0  0
    2.4187    5.2329    0.0209 Cl  0  0  0  0  0  0  0  0  0  0  0  0
    2.3826    2.5378    0.0706 C   0  0  0  0  0  0  0  0  0  0  0  0
    3.0058    1.2868    0.0438 C   0  0  0  0  0  0  0  0  0  0  0  0
    1.2553   -2.0831    0.0396 H   0  0  0  0  0  0  0  0  0  0  0  0
    5.0812   -2.4016   -2.3353 H   0  0  0  0  0  0  0  0  0  0  0  0
    6.1779   -4.6050   -2.5503 H   0  0  0  0  0  0  0  0  0  0  0  0
    6.7491   -5.9176   -0.5248 H   0  0  0  0  0  0  0  0  0  0  0  0
    6.2670   -5.0131    1.7187 H   0  0  0  0  0  0  0  0  0  0  0  0
    5.3375   -3.3476    2.8727 H   0  0  0  0  0  0  0  0  0  0  0  0
    6.2575    2.2573   -0.1398 H   0  0  0  0  0  0  0  0  0  0  0  0
    5.1692    4.4874   -0.1094 H   0  0  0  0  0  0  0  0  0  0  0  0
    1.2991    2.6101    0.1275 H   0  0  0  0  0  0  0  0  0  0  0  0
  1  2  2  0  0  0  0
  2  3  1  0  0  0  0
  2 20  1  0  0  0  0
  3  4  1  0  0  0  0
  3  5  2  0  0  0  0
  4 21  1  0  0  0  0
  5  6  1  0  0  0  0
  5 13  1  0  0  0  0
  6  7  1  0  0  0  0
  6 11  2  0  0  0  0
  7  8  2  0  0  0  0
  7 22  1  0  0  0  0
  8  9  1  0  0  0  0
  8 23  1  0  0  0  0
  9 10  2  0  0  0  0
  9 24  1  0  0  0  0
 10 11  1  0  0  0  0
 10 25  1  0  0  0  0
 11 12  1  0  0  0  0
 12 26  1  0  0  0  0
 13 14  1  0  0  0  0
 14 15  1  0  0  0  0
 14 20  2  0  0  0  0
 15 16  2  0  0  0  0
 15 27  1  0  0  0  0
 16 17  1  0  0  0  0
 16 28  1  0  0  0  0
 17 18  1  0  0  0  0
 17 19  2  0  0  0  0
 19 20  1  0  0  0  0
 19 29  1  0  0  0  0
M  END
>  <Energy>
68.2566

$$$$

 OpenBabel04232614443D

 38 40  0  0  1  0  0  0  0  0999 V2000
    0.8410    0.1611    0.0305 C   0  0  0  0  0  0  0  0  0  0  0  0
    2.3229    0.0246    0.0979 C   0  0  0  0  0  0  0  0  0  0  0  0
    3.2942    1.0061    0.0563 C   0  0  0  0  0  0  0  0  0  0  0  0
    4.6071    0.4592    0.0385 C   0  0  0  0  0  0  0  0  0  0  0  0
    4.5952   -0.9065    0.0444 C   0  0  0  0  0  0  0  0  0  0  0  0
    3.0166   -1.5352    0.2161 S   0  0  0  0  0  0  0  0  0  0  0  0
    5.7648   -1.7894   -0.1476 C   0  0  1  0  0  0  0  0  0  0  0  0
    5.6825   -2.4035   -1.4753 N   0  0  0  0  0  0  0  0  0  0  0  0
    5.6521   -1.6574   -2.7109 C   0  0  0  0  0  0  0  0  0  0  0  0
    5.3175   -2.7168   -3.7399 C   0  0  0  0  0  0  0  0  0  0  0  0
    5.9714   -3.9751   -3.1836 C   0  0  0  0  0  0  0  0  0  0  0  0
    5.9318   -3.7502   -1.6923 C   0  0  0  0  0  0  0  0  0  0  0  0
    6.1383   -4.6020   -0.8448 O   0  0  0  0  0  0  0  0  0  0  0  0
    7.0840   -1.0169    0.0775 C   0  0  2  0  0  0  0  0  0  0  0  0
    7.7248   -1.4920    1.2837 O   0  0  0  0  0  0  0  0  0  0  0  0
    7.0007    0.5593    0.0629 C   0  0  0  0  0  0  0  0  0  0  0  0
    7.6193    1.1746    1.3356 C   0  0  0  0  0  0  0  0  0  0  0  0
    7.8213    1.0778   -1.1380 C   0  0  0  0  0  0  0  0  0  0  0  0
    5.7176    1.2077   -0.0933 O   0  0  0  0  0  0  0  0  0  0  0  0
    0.5412    1.2129    0.0056 H   0  0  0  0  0  0  0  0  0  0  0  0
    0.3617   -0.3104    0.8941 H   0  0  0  0  0  0  0  0  0  0  0  0
    0.4580   -0.3158   -0.8798 H   0  0  0  0  0  0  0  0  0  0  0  0
    3.0754    2.0647   -0.0098 H   0  0  0  0  0  0  0  0  0  0  0  0
    5.7129   -2.6025    0.5885 H   0  0  0  0  0  0  0  0  0  0  0  0
    6.6446   -1.2343   -2.8892 H   0  0  0  0  0  0  0  0  0  0  0  0
    4.9033   -0.8618   -2.6883 H   0  0  0  0  0  0  0  0  0  0  0  0
    5.6690   -2.4590   -4.7425 H   0  0  0  0  0  0  0  0  0  0  0  0
    4.2304   -2.8581   -3.7869 H   0  0  0  0  0  0  0  0  0  0  0  0
    7.0169   -4.0549   -3.4959 H   0  0  0  0  0  0  0  0  0  0  0  0
    5.4190   -4.8753   -3.4611 H   0  0  0  0  0  0  0  0  0  0  0  0
    7.7946   -1.3327   -0.6973 H   0  0  0  0  0  0  0  0  0  0  0  0
    7.0736   -1.4569    2.0095 H   0  0  0  0  0  0  0  0  0  0  0  0
    8.6557    0.8527    1.4826 H   0  0  0  0  0  0  0  0  0  0  0  0
    7.0332    0.9036    2.2203 H   0  0  0  0  0  0  0  0  0  0  0  0
    7.6104    2.2698    1.2877 H   0  0  0  0  0  0  0  0  0  0  0  0
    8.8338    0.6627   -1.1543 H   0  0  0  0  0  0  0  0  0  0  0  0
    7.9045    2.1726   -1.1140 H   0  0  0  0  0  0  0  0  0  0  0  0
    7.3240    0.8364   -2.0822 H   0  0  0  0  0  0  0  0  0  0  0  0
  1  2  1  0  0  0  0
  1 20  1  0  0  0  0
  1 21  1  0  0  0  0
  1 22  1  0  0  0  0
  2  3  2  0  0  0  0
  2  6  1  0  0  0  0
  3  4  1  0  0  0  0
  3 23  1  0  0  0  0
  4  5  2  0  0  0  0
  4 19  1  0  0  0  0
  5  6  1  0  0  0  0
  5  7  1  0  0  0  0
  7 14  1  0  0  0  0
  7  8  1  0  0  0  0
  7 24  1  1  0  0  0
  8  9  1  0  0  0  0
  8 12  1  0  0  0  0
  9 10  1  0  0  0  0
  9 25  1  0  0  0  0
  9 26  1  0  0  0  0
 10 11  1  0  0  0  0
 10 27  1  0  0  0  0
 10 28  1  0  0  0  0
 11 12  1  0  0  0  0
 11 29  1  0  0  0  0
 11 30  1  0  0  0  0
 12 13  2  0  0  0  0
 14 15  1  0  0  0  0
 14 16  1  0  0  0  0
 14 31  1  6  0  0  0
 15 32  1  0  0  0  0
 16 17  1  0  0  0  0
 16 18  1  0  0  0  0
 16 19  1  0  0  0  0
 17 33  1  0  0  0  0
 17 34  1  0  0  0  0
 17 35  1  0  0  0  0
 18 36  1  0  0  0  0
 18 37  1  0  0  0  0
 18 38  1  0  0  0  0
M  END
>  <Energy>
39.8673

$$$$

 OpenBabel04232614443D

 33 35  0  0  0  0  0  0  0  0999 V2000
    4.0829   -2.7983   -0.7707 C   0  0  0  0  0  0  0  0  0  0  0  0
    4.2566   -1.3518   -0.6113 C   0  0  0  0  0  0  0  0  0  0  0  0
    3.3467   -0.4324   -0.3104 N   0  0  0  0  0  0  0  0  0  0  0  0
    4.0613    0.7468   -0.2921 C   0  0  0  0  0  0  0  0  0  0  0  0
    3.3756    2.0111    0.0656 C   0  0  0  0  0  0  0  0  0  0  0  0
    5.3888    0.5168   -0.6010 C   0  0  0  0  0  0  0  0  0  0  0  0
    6.5597    1.3717   -0.6865 C   0  0  0  0  0  0  0  0  0  0  0  0
    6.4805    2.5940   -0.5942 O   0  0  0  0  0  0  0  0  0  0  0  0
    7.7323    0.6502   -0.7906 N   0  0  0  0  0  0  0  0  0  0  0  0
    8.9354    1.1647   -0.3812 C   0  0  0  0  0  0  0  0  0  0  0  0
    9.4673    2.3621   -0.4950 N   0  0  0  0  0  0  0  0  0  0  0  0
   10.4900    2.4800    0.4532 C   0  0  0  0  0  0  0  0  0  0  0  0
   11.3236    3.5951    0.7313 C   0  0  0  0  0  0  0  0  0  0  0  0
   11.7841    4.5826   -0.3033 C   0  0  0  0  0  0  0  0  0  0  0  0
   11.8855    3.6794    2.0194 C   0  0  0  0  0  0  0  0  0  0  0  0
   11.9727    2.5552    2.8273 C   0  0  0  0  0  0  0  0  0  0  0  0
   11.4991    1.3274    2.3703 C   0  0  0  0  0  0  0  0  0  0  0  0
   10.6895    1.3336    1.2266 C   0  0  0  0  0  0  0  0  0  0  0  0
    9.8337    0.0271    0.5111 S   0  0  0  0  0  0  0  0  0  0  0  0
    5.5227   -0.8485   -0.7869 O   0  0  0  0  0  0  0  0  0  0  0  0
    3.0275   -3.0756   -0.6764 H   0  0  0  0  0  0  0  0  0  0  0  0
    4.6446   -3.3439   -0.0020 H   0  0  0  0  0  0  0  0  0  0  0  0
    4.4344   -3.1243   -1.7541 H   0  0  0  0  0  0  0  0  0  0  0  0
    2.2931    1.8685    0.1114 H   0  0  0  0  0  0  0  0  0  0  0  0
    3.5838    2.7920   -0.6726 H   0  0  0  0  0  0  0  0  0  0  0  0
    3.7099    2.3596    1.0488 H   0  0  0  0  0  0  0  0  0  0  0  0
    7.6343   -0.3501   -0.6423 H   0  0  0  0  0  0  0  0  0  0  0  0
   12.0319    4.0357   -1.2224 H   0  0  0  0  0  0  0  0  0  0  0  0
   12.7336    5.0373    0.0217 H   0  0  0  0  0  0  0  0  0  0  0  0
   11.0664    5.3699   -0.5130 H   0  0  0  0  0  0  0  0  0  0  0  0
   12.3398    4.6107    2.3550 H   0  0  0  0  0  0  0  0  0  0  0  0
   12.4819    2.6177    3.7848 H   0  0  0  0  0  0  0  0  0  0  0  0
   11.6778    0.4134    2.9285 H   0  0  0  0  0  0  0  0  0  0  0  0
  1  2  1  0  0  0  0
  1 21  1  0  0  0  0
  1 22  1  0  0  0  0
  1 23  1  0  0  0  0
  2  3  2  0  0  0  0
  2 20  1  0  0  0  0
  3  4  1  0  0  0  0
  4  5  1  0  0  0  0
  4  6  2  0  0  0  0
  5 24  1  0  0  0  0
  5 25  1  0  0  0  0
  5 26  1  0  0  0  0
  6  7  1  0  0  0  0
  6 20  1  0  0  0  0
  7  8  2  0  0  0  0
  7  9  1  0  0  0  0
  9 10  1  0  0  0  0
  9 27  1  0  0  0  0
 10 11  2  0  0  0  0
 10 19  1  0  0  0  0
 11 12  1  0  0  0  0
 12 13  1  0  0  0  0
 12 18  2  0  0  0  0
 13 14  1  0  0  0  0
 13 15  2  0  0  0  0
 14 28  1  0  0  0  0
 14 29  1  0  0  0  0
 14 30  1  0  0  0  0
 15 16  1  0  0  0  0
 15 31  1  0  0  0  0
 16 17  2  0  0  0  0
 16 32  1  0  0  0  0
 17 18  1  0  0  0  0
 17 33  1  0  0  0  0
 18 19  1  0  0  0  0
M  END
>  <Energy>
13.6779

$$$$

 OpenBabel04232614443D

 32 35  0  0  0  0  0  0  0  0999 V2000
    3.2135   -1.1215   -0.4547 N   0  0  0  0  0  0  0  0  0  0  0  0
    2.4764    0.0181   -0.0505 N   0  0  0  0  0  0  0  0  0  0  0  0
    3.1536    1.2566    0.0429 C   0  0  0  0  0  0  0  0  0  0  0  0
    4.2238    1.4704   -0.7434 N   0  0  0  0  0  0  0  0  0  0  0  0
    4.8767    2.6235   -0.6215 C   0  0  0  0  0  0  0  0  0  0  0  0
    5.9405    2.7548   -1.4646 O   0  0  0  0  0  0  0  0  0  0  0  0
    4.5042    3.5897    0.3012 C   0  0  0  0  0  0  0  0  0  0  0  0
    5.0055    4.8792    0.6710 C   0  0  0  0  0  0  0  0  0  0  0  0
    4.2803    5.4415    1.7096 C   0  0  0  0  0  0  0  0  0  0  0  0
    2.9824    4.4504    2.1912 S   0  0  0  0  0  0  0  0  0  0  0  0
    3.3967    3.2487    1.0557 C   0  0  0  0  0  0  0  0  0  0  0  0
    2.6878    2.1088    0.9647 N   0  0  0  0  0  0  0  0  0  0  0  0
    4.5963    6.7556    2.2870 C   0  0  0  0  0  0  0  0  0  0  0  0
    4.0997    7.2054    3.5154 C   0  0  0  0  0  0  0  0  0  0  0  0
    4.4612    8.4630    4.0049 C   0  0  0  0  0  0  0  0  0  0  0  0
    5.3182    9.2829    3.2726 C   0  0  0  0  0  0  0  0  0  0  0  0
    5.8264    8.8488    2.0491 C   0  0  0  0  0  0  0  0  0  0  0  0
    5.4856    7.5826    1.5558 C   0  0  0  0  0  0  0  0  0  0  0  0
    6.0000    7.1309    0.1984 C   0  0  0  0  0  0  0  0  0  0  0  0
    6.1869    5.6052    0.0974 C   0  0  0  0  0  0  0  0  0  0  0  0
    2.6322   -1.9609   -0.4508 H   0  0  0  0  0  0  0  0  0  0  0  0
    4.0007   -1.2843    0.1764 H   0  0  0  0  0  0  0  0  0  0  0  0
    1.8754   -0.0454    0.7724 H   0  0  0  0  0  0  0  0  0  0  0  0
    5.8680    1.9124   -1.9513 H   0  0  0  0  0  0  0  0  0  0  0  0
    3.4355    6.5869    4.1129 H   0  0  0  0  0  0  0  0  0  0  0  0
    4.0704    8.8032    4.9607 H   0  0  0  0  0  0  0  0  0  0  0  0
    5.5883   10.2640    3.6553 H   0  0  0  0  0  0  0  0  0  0  0  0
    6.4863    9.5024    1.4835 H   0  0  0  0  0  0  0  0  0  0  0  0
    6.9543    7.6195   -0.0315 H   0  0  0  0  0  0  0  0  0  0  0  0
    5.2725    7.4601   -0.5552 H   0  0  0  0  0  0  0  0  0  0  0  0
    7.0810    5.3067    0.6601 H   0  0  0  0  0  0  0  0  0  0  0  0
    6.3512    5.3331   -0.9501 H   0  0  0  0  0  0  0  0  0  0  0  0
  1  2  1  0  0  0  0
  1 21  1  0  0  0  0
  1 22  1  0  0  0  0
  2  3  1  0  0  0  0
  2 23  1  0  0  0  0
  3  4  1  0  0  0  0
  3 12  2  0  0  0  0
  4  5  2  0  0  0  0
  5  6  1  0  0  0  0
  5  7  1  0  0  0  0
  6 24  1  0  0  0  0
  7  8  1  0  0  0  0
  7 11  2  0  0  0  0
  8  9  2  0  0  0  0
  8 20  1  0  0  0  0
  9 10  1  0  0  0  0
  9 13  1  0  0  0  0
 10 11  1  0  0  0  0
 11 12  1  0  0  0  0
 13 14  1  0  0  0  0
 13 18  2  0  0  0  0
 14 15  2  0  0  0  0
 14 25  1  0  0  0  0
 15 16  1  0  0  0  0
 15 26  1  0  0  0  0
 16 17  2  0  0  0  0
 16 27  1  0  0  0  0
 17 18  1  0  0  0  0
 17 28  1  0  0  0  0
 18 19  1  0  0  0  0
 19 20  1  0  0  0  0
 19 29  1  0  0  0  0
 19 30  1  0  0  0  0
 20 31  1  0  0  0  0
 20 32  1  0  0  0  0
M  END
>  <Energy>
12.6241

$$$$

 OpenBabel04232614443D

 33 36  0  0  0  0  0  0  0  0999 V2000
    1.0282    0.0494    0.0428 O   0  0  0  0  0  0  0  0  0  0  0  0
    2.2554    0.0251    0.0376 C   0  0  0  0  0  0  0  0  0  0  0  0
    2.9565   -1.1463    0.0215 N   0  0  0  0  0  0  0  0  0  0  0  0
    4.2613   -1.2023   -0.0395 C   0  0  0  0  0  0  0  0  0  0  0  0
    4.9662   -2.4450   -0.0849 N   0  0  0  0  0  0  0  0  0  0  0  0
    4.2087   -3.6735    0.0140 C   0  0  0  0  0  0  0  0  0  0  0  0
    3.0309   -3.8718   -0.7318 C   0  0  0  0  0  0  0  0  0  0  0  0
    2.2727   -5.0416   -0.6118 C   0  0  0  0  0  0  0  0  0  0  0  0
    2.6998   -6.0652    0.2258 C   0  0  0  0  0  0  0  0  0  0  0  0
    3.8683   -5.9071    0.9633 C   0  0  0  0  0  0  0  0  0  0  0  0
    4.5982   -4.7147    0.8781 C   0  0  0  0  0  0  0  0  0  0  0  0
    6.4139   -2.3989   -0.1390 C   0  0  0  0  0  0  0  0  0  0  0  0
    7.2131   -3.5463   -0.3063 C   0  0  0  0  0  0  0  0  0  0  0  0
    8.6120   -3.4806   -0.2872 C   0  0  0  0  0  0  0  0  0  0  0  0
    9.2509   -2.2568   -0.1470 C   0  0  0  0  0  0  0  0  0  0  0  0
    8.4927   -1.0956   -0.0539 C   0  0  0  0  0  0  0  0  0  0  0  0
    7.0899   -1.1598   -0.0609 C   0  0  0  0  0  0  0  0  0  0  0  0
    6.3448    0.0937   -0.0311 C   0  0  0  0  0  0  0  0  0  0  0  0
    5.0089    0.0885   -0.0425 C   0  0  0  0  0  0  0  0  0  0  0  0
    4.2721    1.3603   -0.0362 C   0  0  0  0  0  0  0  0  0  0  0  0
    4.8139    2.4584   -0.0837 O   0  0  0  0  0  0  0  0  0  0  0  0
    2.9280    1.2102    0.0219 N   0  0  0  0  0  0  0  0  0  0  0  0
    2.6718   -3.1050   -1.4141 H   0  0  0  0  0  0  0  0  0  0  0  0
    1.3462   -5.1430   -1.1715 H   0  0  0  0  0  0  0  0  0  0  0  0
    2.1157   -6.9781    0.3113 H   0  0  0  0  0  0  0  0  0  0  0  0
    4.2060   -6.7050    1.6197 H   0  0  0  0  0  0  0  0  0  0  0  0
    5.4744   -4.6078    1.5126 H   0  0  0  0  0  0  0  0  0  0  0  0
    6.7697   -4.5255   -0.4675 H   0  0  0  0  0  0  0  0  0  0  0  0
    9.1986   -4.3911   -0.3883 H   0  0  0  0  0  0  0  0  0  0  0  0
   10.3376   -2.2032   -0.1339 H   0  0  0  0  0  0  0  0  0  0  0  0
    9.0054   -0.1384    0.0171 H   0  0  0  0  0  0  0  0  0  0  0  0
    6.9014    1.0266   -0.0266 H   0  0  0  0  0  0  0  0  0  0  0  0
    2.3583    2.0407    0.0136 H   0  0  0  0  0  0  0  0  0  0  0  0
  1  2  2  0  0  0  0
  2  3  1  0  0  0  0
  2 22  1  0  0  0  0
  3  4  2  0  0  0  0
  4  5  1  0  0  0  0
  4 19  1  0  0  0  0
  5  6  1  0  0  0  0
  5 12  1  0  0  0  0
  6  7  1  0  0  0  0
  6 11  2  0  0  0  0
  7  8  2  0  0  0  0
  7 23  1  0  0  0  0
  8  9  1  0  0  0  0
  8 24  1  0  0  0  0
  9 10  2  0  0  0  0
  9 25  1  0  0  0  0
 10 11  1  0  0  0  0
 10 26  1  0  0  0  0
 11 27  1  0  0  0  0
 12 13  1  0  0  0  0
 12 17  2  0  0  0  0
 13 14  2  0  0  0  0
 13 28  1  0  0  0  0
 14 15  1  0  0  0  0
 14 29  1  0  0  0  0
 15 16  2  0  0  0  0
 15 30  1  0  0  0  0
 16 17  1  0  0  0  0
 16 31  1  0  0  0  0
 17 18  1  0  0  0  0
 18 19  2  0  0  0  0
 18 32  1  0  0  0  0
 19 20  1  0  0  0  0
 20 21  2  0  0  0  0
 20 22  1  0  0  0  0
 22 33  1  0  0  0  0
M  END
>  <Energy>
-50.3728

$$$$

 OpenBabel04232614443D

 32 33  0  0  0  0  0  0  0  0999 V2000
    2.8405    1.4858   -0.5148 C   0  0  0  0  0  0  0  0  0  0  0  0
    2.5149    0.0651   -0.0114 C   0  0  0  0  0  0  0  0  0  0  0  0
    3.2679   -0.1604    1.3128 C   0  0  0  0  0  0  0  0  0  0  0  0
    0.9957   -0.0099    0.2428 C   0  0  0  0  0  0  0  0  0  0  0  0
    2.9390   -0.9680   -1.0461 C   0  0  0  0  0  0  0  0  0  0  0  0
    3.5850   -0.7135   -2.1690 N   0  0  0  0  0  0  0  0  0  0  0  0
    3.8014   -1.8535   -2.9268 N   0  0  0  0  0  0  0  0  0  0  0  0
    3.2779   -2.9219   -2.3698 C   0  0  0  0  0  0  0  0  0  0  0  0
    3.3140   -4.1705   -2.9514 N   0  0  0  0  0  0  0  0  0  0  0  0
    2.5639   -5.2495   -2.5388 C   0  0  0  0  0  0  0  0  0  0  0  0
    1.7367   -5.2659   -1.6341 O   0  0  0  0  0  0  0  0  0  0  0  0
    2.7391   -6.5087   -3.2988 C   0  0  0  0  0  0  0  0  0  0  0  0
    3.9321   -6.8869   -3.9192 C   0  0  0  0  0  0  0  0  0  0  0  0
    4.0015   -8.1358   -4.5446 C   0  0  0  0  0  0  0  0  0  0  0  0
    2.8758   -8.9462   -4.5275 C   0  0  0  0  0  0  0  0  0  0  0  0
    2.8950  -10.5009   -5.2471 Cl  0  0  0  0  0  0  0  0  0  0  0  0
    1.7091   -8.6097   -3.9468 N   0  0  0  0  0  0  0  0  0  0  0  0
    1.6701   -7.4019   -3.3351 C   0  0  0  0  0  0  0  0  0  0  0  0
    2.6039   -2.6430   -0.8327 S   0  0  0  0  0  0  0  0  0  0  0  0
    2.5403    2.2432    0.2189 H   0  0  0  0  0  0  0  0  0  0  0  0
    2.3168    1.7074   -1.4522 H   0  0  0  0  0  0  0  0  0  0  0  0
    3.9141    1.6104   -0.6979 H   0  0  0  0  0  0  0  0  0  0  0  0
    2.9889    0.5934    2.0580 H   0  0  0  0  0  0  0  0  0  0  0  0
    4.3530   -0.1022    1.1680 H   0  0  0  0  0  0  0  0  0  0  0  0
    3.0468   -1.1417    1.7477 H   0  0  0  0  0  0  0  0  0  0  0  0
    0.6782    0.7495    0.9663 H   0  0  0  0  0  0  0  0  0  0  0  0
    0.6930   -0.9824    0.6475 H   0  0  0  0  0  0  0  0  0  0  0  0
    0.4298    0.1510   -0.6824 H   0  0  0  0  0  0  0  0  0  0  0  0
    3.8121   -4.1897   -3.8299 H   0  0  0  0  0  0  0  0  0  0  0  0
    4.8172   -6.2609   -3.8894 H   0  0  0  0  0  0  0  0  0  0  0  0
    4.9175   -8.4732   -5.0162 H   0  0  0  0  0  0  0  0  0  0  0  0
    0.7215   -7.1673   -2.8543 H   0  0  0  0  0  0  0  0  0  0  0  0
  1  2  1  0  0  0  0
  1 20  1  0  0  0  0
  1 21  1  0  0  0  0
  1 22  1  0  0  0  0
  2  3  1  0  0  0  0
  2  4  1  0  0  0  0
  2  5  1  0  0  0  0
  3 23  1  0  0  0  0
  3 24  1  0  0  0  0
  3 25  1  0  0  0  0
  4 26  1  0  0  0  0
  4 27  1  0  0  0  0
  4 28  1  0  0  0  0
  5  6  2  0  0  0  0
  5 19  1  0  0  0  0
  6  7  1  0  0  0  0
  7  8  2  0  0  0  0
  8  9  1  0  0  0  0
  8 19  1  0  0  0  0
  9 10  1  0  0  0  0
  9 29  1  0  0  0  0
 10 11  2  0  0  0  0
 10 12  1  0  0  0  0
 12 13  1  0  0  0  0
 12 18  2  0  0  0  0
 13 14  2  0  0  0  0
 13 30  1  0  0  0  0
 14 15  1  0  0  0  0
 14 31  1  0  0  0  0
 15 16  1  0  0  0  0
 15 17  2  0  0  0  0
 17 18  1  0  0  0  0
 18 32  1  0  0  0  0
M  END
>  <Energy>
11.8737

$$$$

 OpenBabel04232614443D

 32 35  0  0  1  0  0  0  0  0999 V2000
   -1.8588   -0.0817    1.4117 Cl  0  0  0  0  0  0  0  0  0  0  0  0
   -0.3184   -0.0559    0.6269 C   0  0  0  0  0  0  0  0  0  0  0  0
    0.3901    1.1505    0.6186 C   0  0  0  0  0  0  0  0  0  0  0  0
    1.6395    1.2274    0.0017 C   0  0  0  0  0  0  0  0  0  0  0  0
    2.1887    0.0975   -0.5995 C   0  0  0  0  0  0  0  0  0  0  0  0
    1.4844   -1.1082   -0.5936 C   0  0  0  0  0  0  0  0  0  0  0  0
    0.2201   -1.1979    0.0131 C   0  0  0  0  0  0  0  0  0  0  0  0
   -0.4925   -2.4813   -0.0757 C   0  0  0  0  0  0  0  0  0  0  0  0
   -1.3534   -2.7025   -1.0865 C   0  0  0  0  0  0  0  0  0  0  0  0
   -2.0538   -4.0461   -1.2481 C   0  0  3  0  0  0  0  0  0  0  0  0
   -1.8461   -4.6292   -2.6135 C   0  0  0  0  0  0  0  0  0  0  0  0
   -0.9175   -5.4918   -3.1667 C   0  0  0  0  0  0  0  0  0  0  0  0
   -1.2617   -5.6313   -4.5320 C   0  0  0  0  0  0  0  0  0  0  0  0
   -2.3698   -4.8411   -4.7326 C   0  0  0  0  0  0  0  0  0  0  0  0
   -2.7265   -4.2224   -3.5785 O   0  0  0  0  0  0  0  0  0  0  0  0
   -1.6372   -4.9928   -0.2050 N   0  0  0  0  0  0  0  0  0  0  0  0
   -2.0912   -6.2615   -0.0865 N   0  0  0  0  0  0  0  0  0  0  0  0
   -1.4049   -6.6719    0.9857 C   0  0  0  0  0  0  0  0  0  0  0  0
   -0.5851   -5.7389    1.5648 N   0  0  0  0  0  0  0  0  0  0  0  0
   -0.7548   -4.6884    0.8020 C   0  0  0  0  0  0  0  0  0  0  0  0
   -0.2133   -3.4564    0.8572 N   0  0  0  0  0  0  0  0  0  0  0  0
   -0.0297    2.0374    1.0872 H   0  0  0  0  0  0  0  0  0  0  0  0
    2.1833    2.1692   -0.0108 H   0  0  0  0  0  0  0  0  0  0  0  0
    3.1623    0.1550   -1.0810 H   0  0  0  0  0  0  0  0  0  0  0  0
    1.9219   -1.9800   -1.0776 H   0  0  0  0  0  0  0  0  0  0  0  0
   -1.5589   -1.9429   -1.8350 H   0  0  0  0  0  0  0  0  0  0  0  0
   -3.1275   -3.8928   -1.0780 H   0  0  0  0  0  0  0  0  0  0  0  0
   -0.1012   -5.9702   -2.6423 H   0  0  0  0  0  0  0  0  0  0  0  0
   -0.7662   -6.2375   -5.2779 H   0  0  0  0  0  0  0  0  0  0  0  0
   -2.9865   -4.6261   -5.5914 H   0  0  0  0  0  0  0  0  0  0  0  0
   -1.5024   -7.6838    1.3581 H   0  0  0  0  0  0  0  0  0  0  0  0
    0.4121   -3.2167    1.6200 H   0  0  0  0  0  0  0  0  0  0  0  0
  1  2  1  0  0  0  0
  2  3  1  0  0  0  0
  2  7  2  0  0  0  0
  3  4  2  0  0  0  0
  3 22  1  0  0  0  0
  4  5  1  0  0  0  0
  4 23  1  0  0  0  0
  5  6  2  0  0  0  0
  5 24  1  0  0  0  0
  6  7  1  0  0  0  0
  6 25  1  0  0  0  0
  7  8  1  0  0  0  0
  8  9  2  0  0  0  0
  8 21  1  0  0  0  0
  9 10  1  0  0  0  0
  9 26  1  0  0  0  0
 10 11  1  0  0  0  0
 10 16  1  0  0  0  0
 10 27  1  0  0  0  0
 11 12  2  0  0  0  0
 11 15  1  0  0  0  0
 12 13  1  0  0  0  0
 12 28  1  0  0  0  0
 13 14  2  0  0  0  0
 13 29  1  0  0  0  0
 14 15  1  0  0  0  0
 14 30  1  0  0  0  0
 16 17  1  0  0  0  0
 16 20  1  0  0  0  0
 17 18  2  0  0  0  0
 18 19  1  0  0  0  0
 18 31  1  0  0  0  0
 19 20  2  0  0  0  0
 20 21  1  0  0  0  0
 21 32  1  0  0  0  0
M  END
>  <Energy>
48.5706

$$$$

 OpenBabel04232614443D

 37 40  0  0  0  0  0  0  0  0999 V2000
    1.4566   -0.5783    0.1786 C   0  0  0  0  0  0  0  0  0  0  0  0
    2.9329   -0.3058    0.1627 C   0  0  0  0  0  0  0  0  0  0  0  0
    3.3996    0.9979   -0.0734 C   0  0  0  0  0  0  0  0  0  0  0  0
    4.7874    1.3106   -0.0228 C   0  0  0  0  0  0  0  0  0  0  0  0
    5.3532    2.5868   -0.1199 C   0  0  0  0  0  0  0  0  0  0  0  0
    4.5600    3.7331   -0.2716 N   0  0  0  0  0  0  0  0  0  0  0  0
    6.6715    2.8215   -0.0511 N   0  0  0  0  0  0  0  0  0  0  0  0
    7.4564    1.7615    0.1477 C   0  0  0  0  0  0  0  0  0  0  0  0
    8.8120    1.9723    0.2724 N   0  0  0  0  0  0  0  0  0  0  0  0
    7.0336    0.5047    0.2373 N   0  0  0  0  0  0  0  0  0  0  0  0
    5.7166    0.2900    0.1690 C   0  0  0  0  0  0  0  0  0  0  0  0
    5.2534   -0.9944    0.3628 C   0  0  0  0  0  0  0  0  0  0  0  0
    3.8818   -1.3028    0.4239 C   0  0  0  0  0  0  0  0  0  0  0  0
    3.5549   -2.6216    0.9373 C   0  0  0  0  0  0  0  0  0  0  0  0
    3.8276   -2.9234    2.2604 C   0  0  0  0  0  0  0  0  0  0  0  0
    3.6551   -4.2646    2.4366 N   0  0  0  0  0  0  0  0  0  0  0  0
    3.2837   -4.8531    1.2502 C   0  0  0  0  0  0  0  0  0  0  0  0
    3.0743   -6.2053    0.9574 C   0  0  0  0  0  0  0  0  0  0  0  0
    2.7017   -6.5336   -0.3465 C   0  0  0  0  0  0  0  0  0  0  0  0
    2.5419   -5.5451   -1.3147 C   0  0  0  0  0  0  0  0  0  0  0  0
    2.7805   -4.1961   -1.0120 C   0  0  0  0  0  0  0  0  0  0  0  0
    3.1659   -3.8372    0.2955 C   0  0  0  0  0  0  0  0  0  0  0  0
    0.8804    0.3273   -0.0395 H   0  0  0  0  0  0  0  0  0  0  0  0
    1.1415   -0.9386    1.1616 H   0  0  0  0  0  0  0  0  0  0  0  0
    1.1972   -1.3196   -0.5847 H   0  0  0  0  0  0  0  0  0  0  0  0
    2.6868    1.7998   -0.2620 H   0  0  0  0  0  0  0  0  0  0  0  0
    3.8852    3.8009    0.4829 H   0  0  0  0  0  0  0  0  0  0  0  0
    5.1994    4.5258   -0.2578 H   0  0  0  0  0  0  0  0  0  0  0  0
    9.0782    2.8204   -0.2052 H   0  0  0  0  0  0  0  0  0  0  0  0
    9.3091    1.1249    0.0336 H   0  0  0  0  0  0  0  0  0  0  0  0
    5.9858   -1.7811    0.5459 H   0  0  0  0  0  0  0  0  0  0  0  0
    4.1838   -2.3001    3.0698 H   0  0  0  0  0  0  0  0  0  0  0  0
    3.8333   -4.7662    3.2946 H   0  0  0  0  0  0  0  0  0  0  0  0
    3.2105   -6.9757    1.7094 H   0  0  0  0  0  0  0  0  0  0  0  0
    2.5378   -7.5765   -0.6073 H   0  0  0  0  0  0  0  0  0  0  0  0
    2.2415   -5.8239   -2.3219 H   0  0  0  0  0  0  0  0  0  0  0  0
    2.6712   -3.4379   -1.7819 H   0  0  0  0  0  0  0  0  0  0  0  0
  1  2  1  0  0  0  0
  1 23  1  0  0  0  0
  1 24  1  0  0  0  0
  1 25  1  0  0  0  0
  2  3  1  0  0  0  0
  2 13  2  0  0  0  0
  3  4  2  0  0  0  0
  3 26  1  0  0  0  0
  4  5  1  0  0  0  0
  4 11  1  0  0  0  0
  5  6  1  0  0  0  0
  5  7  2  0  0  0  0
  6 27  1  0  0  0  0
  6 28  1  0  0  0  0
  7  8  1  0  0  0  0
  8  9  1  0  0  0  0
  8 10  2  0  0  0  0
  9 29  1  0  0  0  0
  9 30  1  0  0  0  0
 10 11  1  0  0  0  0
 11 12  2  0  0  0  0
 12 13  1  0  0  0  0
 12 31  1  0  0  0  0
 13 14  1  0  0  0  0
 14 15  2  0  0  0  0
 14 22  1  0  0  0  0
 15 16  1  0  0  0  0
 15 32  1  0  0  0  0
 16 17  1  0  0  0  0
 16 33  1  0  0  0  0
 17 18  1  0  0  0  0
 17 22  2  0  0  0  0
 18 19  2  0  0  0  0
 18 34  1  0  0  0  0
 19 20  1  0  0  0  0
 19 35  1  0  0  0  0
 20 21  2  0  0  0  0
 20 36  1  0  0  0  0
 21 22  1  0  0  0  0
 21 37  1  0  0  0  0
M  END
>  <Energy>
-85.7078

$$$$

 OpenBabel04232614443D

 30 33  0  0  0  0  0  0  0  0999 V2000
    1.0640    0.1116   -0.0169 O   0  0  0  0  0  0  0  0  0  0  0  0
    2.2901    0.0977    0.0614 C   0  0  0  0  0  0  0  0  0  0  0  0
    3.0012   -1.0660    0.0979 N   0  0  0  0  0  0  0  0  0  0  0  0
    4.3065   -1.0871    0.1398 C   0  0  0  0  0  0  0  0  0  0  0  0
    5.0153   -2.3063    0.1887 N   0  0  0  0  0  0  0  0  0  0  0  0
    4.2579   -3.5250   -0.2073 C   0  0  0  0  0  0  0  0  0  0  0  0
    3.0458   -3.9854    0.5730 C   0  0  0  0  0  0  0  0  0  0  0  0
    4.2710   -4.8363    0.5389 C   0  0  0  0  0  0  0  0  0  0  0  0
    6.4487   -2.2914    0.1308 C   0  0  0  0  0  0  0  0  0  0  0  0
    7.2225   -3.4626    0.1259 C   0  0  0  0  0  0  0  0  0  0  0  0
    8.6182   -3.4014    0.0724 C   0  0  0  0  0  0  0  0  0  0  0  0
    9.5371   -4.8571    0.0874 Cl  0  0  0  0  0  0  0  0  0  0  0  0
    9.2757   -2.1783    0.0095 C   0  0  0  0  0  0  0  0  0  0  0  0
    8.5322   -1.0017    0.0166 C   0  0  0  0  0  0  0  0  0  0  0  0
    7.1319   -1.0518    0.0865 C   0  0  0  0  0  0  0  0  0  0  0  0
    6.3841    0.2047    0.0947 C   0  0  0  0  0  0  0  0  0  0  0  0
    5.0460    0.2040    0.1244 C   0  0  0  0  0  0  0  0  0  0  0  0
    4.2955    1.4646    0.0994 C   0  0  0  0  0  0  0  0  0  0  0  0
    4.8220    2.5686    0.0561 O   0  0  0  0  0  0  0  0  0  0  0  0
    2.9478    1.2937    0.1108 N   0  0  0  0  0  0  0  0  0  0  0  0
    4.1696   -3.5830   -1.2910 H   0  0  0  0  0  0  0  0  0  0  0  0
    2.1763   -4.2915    0.0031 H   0  0  0  0  0  0  0  0  0  0  0  0
    2.8065   -3.4875    1.5057 H   0  0  0  0  0  0  0  0  0  0  0  0
    4.2324   -5.7470   -0.0486 H   0  0  0  0  0  0  0  0  0  0  0  0
    4.8310   -4.9235    1.4616 H   0  0  0  0  0  0  0  0  0  0  0  0
    6.7600   -4.4410    0.1748 H   0  0  0  0  0  0  0  0  0  0  0  0
   10.3605   -2.1336   -0.0430 H   0  0  0  0  0  0  0  0  0  0  0  0
    9.0541   -0.0481   -0.0351 H   0  0  0  0  0  0  0  0  0  0  0  0
    6.9403    1.1376    0.0627 H   0  0  0  0  0  0  0  0  0  0  0  0
    2.3693    2.1165    0.0660 H   0  0  0  0  0  0  0  0  0  0  0  0
  1  2  2  0  0  0  0
  2  3  1  0  0  0  0
  2 20  1  0  0  0  0
  3  4  2  0  0  0  0
  4  5  1  0  0  0  0
  4 17  1  0  0  0  0
  5  6  1  0  0  0  0
  5  9  1  0  0  0  0
  6  7  1  0  0  0  0
  6  8  1  0  0  0  0
  6 21  1  0  0  0  0
  7  8  1  0  0  0  0
  7 22  1  0  0  0  0
  7 23  1  0  0  0  0
  8 24  1  0  0  0  0
  8 25  1  0  0  0  0
  9 10  1  0  0  0  0
  9 15  2  0  0  0  0
 10 11  2  0  0  0  0
 10 26  1  0  0  0  0
 11 12  1  0  0  0  0
 11 13  1  0  0  0  0
 13 14  2  0  0  0  0
 13 27  1  0  0  0  0
 14 15  1  0  0  0  0
 14 28  1  0  0  0  0
 15 16  1  0  0  0  0
 16 17  2  0  0  0  0
 16 29  1  0  0  0  0
 17 18  1  0  0  0  0
 18 19  2  0  0  0  0
 18 20  1  0  0  0  0
 20 30  1  0  0  0  0
M  END
>  <Energy>
-77.3002

$$$$

 OpenBabel04232614443D

 31 34  0  0  0  0  0  0  0  0999 V2000
   -2.3271    1.8620   -0.0003 O   0  0  0  0  0  0  0  0  0  0  0  0
   -1.8578    0.7301    0.0007 C   0  0  0  0  0  0  0  0  0  0  0  0
   -2.7080   -0.4880   -0.0170 C   0  0  0  0  0  0  0  0  0  0  0  0
   -4.1726   -0.4081   -0.0365 C   0  0  0  0  0  0  0  0  0  0  0  0
   -4.8586   -0.3658   -1.2713 C   0  0  0  0  0  0  0  0  0  0  0  0
   -6.2550   -0.2930   -1.3134 C   0  0  0  0  0  0  0  0  0  0  0  0
   -6.9304   -0.2614   -0.1132 C   0  0  0  0  0  0  0  0  0  0  0  0
   -6.2688   -0.3056    1.0918 C   0  0  0  0  0  0  0  0  0  0  0  0
   -4.8933   -0.3829    1.1664 C   0  0  0  0  0  0  0  0  0  0  0  0
   -7.1205   -0.2622    2.1517 O   0  0  0  0  0  0  0  0  0  0  0  0
   -8.3890   -0.1368    1.4753 C   0  0  0  0  0  0  0  0  0  0  0  0
   -8.2795   -0.1830    0.0375 O   0  0  0  0  0  0  0  0  0  0  0  0
   -2.0934   -1.6795   -0.0239 C   0  0  0  0  0  0  0  0  0  0  0  0
   -0.7363   -1.8983   -0.0217 O   0  0  0  0  0  0  0  0  0  0  0  0
    0.0867   -0.7992   -0.0079 C   0  0  0  0  0  0  0  0  0  0  0  0
    1.4624   -1.0363   -0.0167 C   0  0  0  0  0  0  0  0  0  0  0  0
    2.3379    0.0466   -0.0001 C   0  0  0  0  0  0  0  0  0  0  0  0
    3.6893   -0.1319   -0.0172 O   0  0  0  0  0  0  0  0  0  0  0  0
    1.8613    1.3544    0.0324 C   0  0  0  0  0  0  0  0  0  0  0  0
    0.4859    1.5902    0.0377 C   0  0  0  0  0  0  0  0  0  0  0  0
   -0.4002    0.5080    0.0129 C   0  0  0  0  0  0  0  0  0  0  0  0
   -4.3020   -0.3768   -2.2066 H   0  0  0  0  0  0  0  0  0  0  0  0
   -6.7885   -0.2524   -2.2563 H   0  0  0  0  0  0  0  0  0  0  0  0
   -4.3973   -0.4084    2.1303 H   0  0  0  0  0  0  0  0  0  0  0  0
   -8.8462    0.8178    1.7615 H   0  0  0  0  0  0  0  0  0  0  0  0
   -9.0437   -0.9520    1.8034 H   0  0  0  0  0  0  0  0  0  0  0  0
   -2.6177   -2.6278   -0.0362 H   0  0  0  0  0  0  0  0  0  0  0  0
    1.8298   -2.0570   -0.0370 H   0  0  0  0  0  0  0  0  0  0  0  0
    3.8843   -1.0820   -0.0750 H   0  0  0  0  0  0  0  0  0  0  0  0
    2.5591    2.1879    0.0497 H   0  0  0  0  0  0  0  0  0  0  0  0
    0.1098    2.6108    0.0585 H   0  0  0  0  0  0  0  0  0  0  0  0
  1  2  2  0  0  0  0
  2  3  1  0  0  0  0
  2 21  1  0  0  0  0
  3  4  1  0  0  0  0
  3 13  2  0  0  0  0
  4  5  1  0  0  0  0
  4  9  2  0  0  0  0
  5  6  2  0  0  0  0
  5 22  1  0  0  0  0
  6  7  1  0  0  0  0
  6 23  1  0  0  0  0
  7  8  2  0  0  0  0
  7 12  1  0  0  0  0
  8  9  1  0  0  0  0
  8 10  1  0  0  0  0
  9 24  1  0  0  0  0
 10 11  1  0  0  0  0
 11 12  1  0  0  0  0
 11 25  1  0  0  0  0
 11 26  1  0  0  0  0
 13 14  1  0  0  0  0
 13 27  1  0  0  0  0
 14 15  1  0  0  0  0
 15 16  1  0  0  0  0
 15 21  2  0  0  0  0
 16 17  2  0  0  0  0
 16 28  1  0  0  0  0
 17 18  1  0  0  0  0
 17 19  1  0  0  0  0
 18 29  1  0  0  0  0
 19 20  2  0  0  0  0
 19 30  1  0  0  0  0
 20 21  1  0  0  0  0
 20 31  1  0  0  0  0
M  END
>  <Energy>
54.7986

$$$$

 OpenBabel04232614443D

 30 32  0  0  0  0  0  0  0  0999 V2000
    2.2252   -0.2582    0.7154 C   0  0  0  0  0  0  0  0  0  0  0  0
    0.7790   -0.3517    0.3651 C   0  0  0  0  0  0  0  0  0  0  0  0
    0.1231   -1.3690   -0.2937 C   0  0  0  0  0  0  0  0  0  0  0  0
   -1.2625   -1.0895   -0.4730 C   0  0  0  0  0  0  0  0  0  0  0  0
   -1.6353    0.1356    0.0510 C   0  0  0  0  0  0  0  0  0  0  0  0
   -2.9222    0.7640    0.0271 C   0  0  0  0  0  0  0  0  0  0  0  0
   -3.7293    0.5008    1.0703 C   0  0  0  0  0  0  0  0  0  0  0  0
   -5.0865    1.0672    1.1763 C   0  0  0  0  0  0  0  0  0  0  0  0
   -5.8026    0.7987    2.1345 O   0  0  0  0  0  0  0  0  0  0  0  0
   -5.4917    1.8865    0.1663 N   0  0  0  0  0  0  0  0  0  0  0  0
   -4.7196    2.2053   -0.9666 C   0  0  0  0  0  0  0  0  0  0  0  0
   -5.1906    3.0451   -1.9980 C   0  0  0  0  0  0  0  0  0  0  0  0
   -6.5293    3.6563   -1.9569 N   0  3  0  0  0  0  0  0  0  0  0  0
   -7.2563    3.4144   -0.9835 O   0  0  0  0  0  0  0  0  0  0  0  0
   -6.8601    4.3823   -2.9051 O   0  5  0  0  0  0  0  0  0  0  0  0
   -4.3812    3.3197   -3.1142 C   0  0  0  0  0  0  0  0  0  0  0  0
   -3.1109    2.7581   -3.2057 C   0  0  0  0  0  0  0  0  0  0  0  0
   -2.6399    1.9283   -2.1878 C   0  0  0  0  0  0  0  0  0  0  0  0
   -3.4287    1.6447   -1.0596 C   0  0  0  0  0  0  0  0  0  0  0  0
   -0.2884    0.9185    0.7819 S   0  0  0  0  0  0  0  0  0  0  0  0
    2.7631   -1.1576    0.3966 H   0  0  0  0  0  0  0  0  0  0  0  0
    2.3631   -0.1518    1.7964 H   0  0  0  0  0  0  0  0  0  0  0  0
    2.6881    0.5999    0.2166 H   0  0  0  0  0  0  0  0  0  0  0  0
    0.6140   -2.2704   -0.6418 H   0  0  0  0  0  0  0  0  0  0  0  0
   -1.9550   -1.7543   -0.9759 H   0  0  0  0  0  0  0  0  0  0  0  0
   -3.4358   -0.1388    1.8959 H   0  0  0  0  0  0  0  0  0  0  0  0
   -6.4316    2.2702    0.2619 H   0  0  0  0  0  0  0  0  0  0  0  0
   -4.7255    3.9656   -3.9207 H   0  0  0  0  0  0  0  0  0  0  0  0
   -2.4841    2.9658   -4.0710 H   0  0  0  0  0  0  0  0  0  0  0  0
   -1.6417    1.5054   -2.2909 H   0  0  0  0  0  0  0  0  0  0  0  0
  1  2  1  0  0  0  0
  1 21  1  0  0  0  0
  1 22  1  0  0  0  0
  1 23  1  0  0  0  0
  2  3  2  0  0  0  0
  2 20  1  0  0  0  0
  3  4  1  0  0  0  0
  3 24  1  0  0  0  0
  4  5  2  0  0  0  0
  4 25  1  0  0  0  0
  5  6  1  0  0  0  0
  5 20  1  0  0  0  0
  6  7  2  0  0  0  0
  6 19  1  0  0  0  0
  7  8  1  0  0  0  0
  7 26  1  0  0  0  0
  8  9  2  0  0  0  0
  8 10  1  0  0  0  0
 10 11  1  0  0  0  0
 10 27  1  0  0  0  0
 11 12  1  0  0  0  0
 11 19  2  0  0  0  0
 12 13  1  0  0  0  0
 12 16  2  0  0  0  0
 13 14  2  0  0  0  0
 13 15  1  0  0  0  0
 16 17  1  0  0  0  0
 16 28  1  0  0  0  0
 17 18  2  0  0  0  0
 17 29  1  0  0  0  0
 18 19  1  0  0  0  0
 18 30  1  0  0  0  0
M  CHG  2  13   1  15  -1
M  END
>  <Energy>
39.1988

$$$$

 OpenBabel04232614443D

 36 39  0  0  0  0  0  0  0  0999 V2000
    0.9609   -0.0897   -0.0050 O   0  0  0  0  0  0  0  0  0  0  0  0
    2.3243   -0.1048   -0.0150 C   0  0  0  0  0  0  0  0  0  0  0  0
    3.0256   -1.2788    0.2320 C   0  0  0  0  0  0  0  0  0  0  0  0
    4.4306   -1.2672    0.2158 C   0  0  0  0  0  0  0  0  0  0  0  0
    5.1490   -0.0759   -0.0290 C   0  0  0  0  0  0  0  0  0  0  0  0
    4.4051    1.0937   -0.2869 C   0  0  0  0  0  0  0  0  0  0  0  0
    3.0108    1.0768   -0.2729 C   0  0  0  0  0  0  0  0  0  0  0  0
    2.3012    2.2196   -0.5058 O   0  0  0  0  0  0  0  0  0  0  0  0
    6.6260   -0.0749    0.0166 C   0  0  0  0  0  0  0  0  0  0  0  0
    7.4040    1.0852    0.1663 C   0  0  0  0  0  0  0  0  0  0  0  0
    8.7961    1.0178    0.2211 C   0  0  0  0  0  0  0  0  0  0  0  0
    9.5861    2.1756    0.3542 C   0  0  0  0  0  0  0  0  0  0  0  0
   10.9793    2.0901    0.4151 C   0  0  0  0  0  0  0  0  0  0  0  0
   11.5805    0.8431    0.3466 C   0  0  0  0  0  0  0  0  0  0  0  0
   12.9355    0.6868    0.4082 O   0  0  0  0  0  0  0  0  0  0  0  0
   10.8069   -0.3086    0.2108 C   0  0  0  0  0  0  0  0  0  0  0  0
   11.4342   -1.5252    0.1483 O   0  0  0  0  0  0  0  0  0  0  0  0
    9.4096   -0.2403    0.1423 C   0  0  0  0  0  0  0  0  0  0  0  0
    8.6041   -1.3723   -0.0026 C   0  0  0  0  0  0  0  0  0  0  0  0
    7.2528   -1.2843   -0.0616 N   0  3  0  0  0  0  0  0  0  0  0  0
    6.4831   -2.5347   -0.2915 C   0  0  0  0  0  0  0  0  0  0  0  0
    5.1980   -2.5247    0.5159 C   0  0  0  0  0  0  0  0  0  0  0  0
    0.6108   -0.9706    0.1922 H   0  0  0  0  0  0  0  0  0  0  0  0
    2.4868   -2.2002    0.4392 H   0  0  0  0  0  0  0  0  0  0  0  0
    4.8986    2.0362   -0.5047 H   0  0  0  0  0  0  0  0  0  0  0  0
    2.8900    2.9805   -0.6208 H   0  0  0  0  0  0  0  0  0  0  0  0
    6.9276    2.0591    0.2587 H   0  0  0  0  0  0  0  0  0  0  0  0
    9.1235    3.1612    0.4094 H   0  0  0  0  0  0  0  0  0  0  0  0
   11.5664    2.9990    0.5160 H   0  0  0  0  0  0  0  0  0  0  0  0
   13.3511    1.5635    0.5071 H   0  0  0  0  0  0  0  0  0  0  0  0
   12.3922   -1.3178    0.2257 H   0  0  0  0  0  0  0  0  0  0  0  0
    9.0430   -2.3649   -0.0827 H   0  0  0  0  0  0  0  0  0  0  0  0
    7.0986   -3.3922    0.0000 H   0  0  0  0  0  0  0  0  0  0  0  0
    6.2971   -2.5813   -1.3714 H   0  0  0  0  0  0  0  0  0  0  0  0
    5.4165   -2.5559    1.5898 H   0  0  0  0  0  0  0  0  0  0  0  0
    4.6072   -3.4123    0.2629 H   0  0  0  0  0  0  0  0  0  0  0  0
  1  2  1  0  0  0  0
  1 23  1  0  0  0  0
  2  3  1  0  0  0  0
  2  7  2  0  0  0  0
  3  4  2  0  0  0  0
  3 24  1  0  0  0  0
  4  5  1  0  0  0  0
  4 22  1  0  0  0  0
  5  6  2  0  0  0  0
  5  9  1  0  0  0  0
  6  7  1  0  0  0  0
  6 25  1  0  0  0  0
  7  8  1  0  0  0  0
  8 26  1  0  0  0  0
  9 10  1  0  0  0  0
  9 20  2  0  0  0  0
 10 11  2  0  0  0  0
 10 27  1  0  0  0  0
 11 12  1  0  0  0  0
 11 18  1  0  0  0  0
 12 13  2  0  0  0  0
 12 28  1  0  0  0  0
 13 14  1  0  0  0  0
 13 29  1  0  0  0  0
 14 15  1  0  0  0  0
 14 16  2  0  0  0  0
 15 30  1  0  0  0  0
 16 17  1  0  0  0  0
 16 18  1  0  0  0  0
 17 31  1  0  0  0  0
 18 19  2  0  0  0  0
 19 20  1  0  0  0  0
 19 32  1  0  0  0  0
 20 21  1  0  0  0  0
 21 22  1  0  0  0  0
 21 33  1  0  0  0  0
 21 34  1  0  0  0  0
 22 35  1  0  0  0  0
 22 36  1  0  0  0  0
M  CHG  1  20   1
M  END
>  <Energy>
65.5464

$$$$

 OpenBabel04232614443D

 34 37  0  0  0  0  0  0  0  0999 V2000
    1.1645    0.1139    0.0661 C   0  0  0  0  0  0  0  0  0  0  0  0
    2.6633    0.0423    0.0906 C   0  0  0  0  0  0  0  0  0  0  0  0
    3.4501    1.1912    0.1883 C   0  0  0  0  0  0  0  0  0  0  0  0
    4.8435    1.0883    0.2072 C   0  0  0  0  0  0  0  0  0  0  0  0
    5.4675   -0.1738    0.1178 C   0  0  0  0  0  0  0  0  0  0  0  0
    4.6721   -1.3459    0.0261 C   0  0  0  0  0  0  0  0  0  0  0  0
    3.2931   -1.2089    0.0213 C   0  0  0  0  0  0  0  0  0  0  0  0
    5.1871   -2.5930   -0.0683 N   0  0  0  0  0  0  0  0  0  0  0  0
    6.5287   -2.7381   -0.0970 C   0  0  0  0  0  0  0  0  0  0  0  0
    7.3504   -1.6518   -0.0215 C   0  0  0  0  0  0  0  0  0  0  0  0
    8.7906   -1.5593   -0.1111 C   0  0  0  0  0  0  0  0  0  0  0  0
    9.4849   -2.5534   -0.2324 O   0  0  0  0  0  0  0  0  0  0  0  0
    9.0816   -0.1976   -0.0259 N   0  0  0  0  0  0  0  0  0  0  0  0
   10.3454    0.3699   -0.0488 C   0  0  0  0  0  0  0  0  0  0  0  0
   10.7380    1.6352    0.3414 C   0  0  0  0  0  0  0  0  0  0  0  0
   12.1524    1.8525    0.1913 C   0  0  0  0  0  0  0  0  0  0  0  0
   12.8894    3.0801    0.6057 C   0  0  0  0  0  0  0  0  0  0  0  0
   12.7543    0.7541   -0.3896 C   0  0  0  0  0  0  0  0  0  0  0  0
   11.6599   -0.5212   -0.6673 S   0  0  0  0  0  0  0  0  0  0  0  0
    7.8925    0.5986    0.1879 N   0  0  0  0  0  0  0  0  0  0  0  0
    6.8517   -0.3677    0.1005 C   0  0  0  0  0  0  0  0  0  0  0  0
    0.8095    1.1486    0.0558 H   0  0  0  0  0  0  0  0  0  0  0  0
    0.7494   -0.3807    0.9502 H   0  0  0  0  0  0  0  0  0  0  0  0
    0.7787   -0.3801   -0.8330 H   0  0  0  0  0  0  0  0  0  0  0  0
    2.9847    2.1728    0.2479 H   0  0  0  0  0  0  0  0  0  0  0  0
    5.4377    1.9956    0.2892 H   0  0  0  0  0  0  0  0  0  0  0  0
    2.6878   -2.1118   -0.0472 H   0  0  0  0  0  0  0  0  0  0  0  0
    6.9107   -3.7478   -0.1947 H   0  0  0  0  0  0  0  0  0  0  0  0
   10.0581    2.3588    0.7742 H   0  0  0  0  0  0  0  0  0  0  0  0
   12.2472    3.7590    1.1759 H   0  0  0  0  0  0  0  0  0  0  0  0
   13.2659    3.6150   -0.2719 H   0  0  0  0  0  0  0  0  0  0  0  0
   13.7424    2.8138    1.2389 H   0  0  0  0  0  0  0  0  0  0  0  0
   13.7978    0.6280   -0.6465 H   0  0  0  0  0  0  0  0  0  0  0  0
    7.7873    1.2854   -0.5609 H   0  0  0  0  0  0  0  0  0  0  0  0
  1  2  1  0  0  0  0
  1 22  1  0  0  0  0
  1 23  1  0  0  0  0
  1 24  1  0  0  0  0
  2  3  1  0  0  0  0
  2  7  2  0  0  0  0
  3  4  2  0  0  0  0
  3 25  1  0  0  0  0
  4  5  1  0  0  0  0
  4 26  1  0  0  0  0
  5  6  1  0  0  0  0
  5 21  2  0  0  0  0
  6  7  1  0  0  0  0
  6  8  2  0  0  0  0
  7 27  1  0  0  0  0
  8  9  1  0  0  0  0
  9 10  2  0  0  0  0
  9 28  1  0  0  0  0
 10 11  1  0  0  0  0
 10 21  1  0  0  0  0
 11 12  2  0  0  0  0
 11 13  1  0  0  0  0
 13 14  1  0  0  0  0
 13 20  1  0  0  0  0
 14 15  2  0  0  0  0
 14 19  1  0  0  0  0
 15 16  1  0  0  0  0
 15 29  1  0  0  0  0
 16 17  1  0  0  0  0
 16 18  2  0  0  0  0
 17 30  1  0  0  0  0
 17 31  1  0  0  0  0
 17 32  1  0  0  0  0
 18 19  1  0  0  0  0
 18 33  1  0  0  0  0
 20 21  1  0  0  0  0
 20 34  1  0  0  0  0
M  END
>  <Energy>
92.2902

$$$$

 OpenBabel04232614443D

 36 38  0  0  0  0  0  0  0  0999 V2000
    0.9641    0.9363   -0.6286 C   0  0  0  0  0  0  0  0  0  0  0  0
    2.2740    0.8494   -0.0792 O   0  0  0  0  0  0  0  0  0  0  0  0
    2.9674    2.0238    0.0408 C   0  0  0  0  0  0  0  0  0  0  0  0
    2.5255    3.2749   -0.3911 C   0  0  0  0  0  0  0  0  0  0  0  0
    3.3390    4.3952   -0.2289 C   0  0  0  0  0  0  0  0  0  0  0  0
    4.6015    4.2663    0.3487 C   0  0  0  0  0  0  0  0  0  0  0  0
    5.0551    3.0200    0.7915 C   0  0  0  0  0  0  0  0  0  0  0  0
    6.3009    2.8584    1.4244 N   0  0  0  0  0  0  0  0  0  0  0  0
    7.3531    3.7431    1.3394 C   0  0  0  0  0  0  0  0  0  0  0  0
    7.5011    4.6914    0.5754 O   0  0  0  0  0  0  0  0  0  0  0  0
    8.3369    3.4711    2.3189 N   0  0  0  0  0  0  0  0  0  0  0  0
    8.1041    2.5407    3.3011 N   0  0  0  0  0  0  0  0  0  0  0  0
    9.0104    2.8511    4.2339 C   0  0  0  0  0  0  0  0  0  0  0  0
    9.9088    3.8661    3.8274 C   0  0  0  0  0  0  0  0  0  0  0  0
   10.9797    4.5790    4.4132 C   0  0  0  0  0  0  0  0  0  0  0  0
   11.3500    4.4966    5.8675 C   0  0  0  0  0  0  0  0  0  0  0  0
   11.7069    5.4600    3.5860 C   0  0  0  0  0  0  0  0  0  0  0  0
   11.3698    5.6553    2.2481 C   0  0  0  0  0  0  0  0  0  0  0  0
   10.2627    5.0178    1.6925 C   0  0  0  0  0  0  0  0  0  0  0  0
    9.5374    4.1433    2.5156 C   0  0  0  0  0  0  0  0  0  0  0  0
    4.2248    1.9058    0.6485 C   0  0  0  0  0  0  0  0  0  0  0  0
    0.5422   -0.0733   -0.6507 H   0  0  0  0  0  0  0  0  0  0  0  0
    0.9866    1.3086   -1.6578 H   0  0  0  0  0  0  0  0  0  0  0  0
    0.3163    1.5547    0.0018 H   0  0  0  0  0  0  0  0  0  0  0  0
    1.5563    3.4155   -0.8571 H   0  0  0  0  0  0  0  0  0  0  0  0
    2.9912    5.3744   -0.5486 H   0  0  0  0  0  0  0  0  0  0  0  0
    5.1957    5.1660    0.4786 H   0  0  0  0  0  0  0  0  0  0  0  0
    6.4595    2.0311    1.9961 H   0  0  0  0  0  0  0  0  0  0  0  0
    8.9923    2.3182    5.1767 H   0  0  0  0  0  0  0  0  0  0  0  0
   10.7099    3.7932    6.4072 H   0  0  0  0  0  0  0  0  0  0  0  0
   11.2232    5.4818    6.3306 H   0  0  0  0  0  0  0  0  0  0  0  0
   12.3904    4.1800    5.9844 H   0  0  0  0  0  0  0  0  0  0  0  0
   12.5497    6.0119    3.9984 H   0  0  0  0  0  0  0  0  0  0  0  0
   11.9565    6.3365    1.6334 H   0  0  0  0  0  0  0  0  0  0  0  0
    9.9686    5.2073    0.6642 H   0  0  0  0  0  0  0  0  0  0  0  0
    4.5560    0.9247    0.9782 H   0  0  0  0  0  0  0  0  0  0  0  0
  1  2  1  0  0  0  0
  1 22  1  0  0  0  0
  1 23  1  0  0  0  0
  1 24  1  0  0  0  0
  2  3  1  0  0  0  0
  3  4  1  0  0  0  0
  3 21  2  0  0  0  0
  4  5  2  0  0  0  0
  4 25  1  0  0  0  0
  5  6  1  0  0  0  0
  5 26  1  0  0  0  0
  6  7  2  0  0  0  0
  6 27  1  0  0  0  0
  7  8  1  0  0  0  0
  7 21  1  0  0  0  0
  8  9  1  0  0  0  0
  8 28  1  0  0  0  0
  9 10  2  0  0  0  0
  9 11  1  0  0  0  0
 11 12  1  0  0  0  0
 11 20  1  0  0  0  0
 12 13  2  0  0  0  0
 13 14  1  0  0  0  0
 13 29  1  0  0  0  0
 14 15  1  0  0  0  0
 14 20  2  0  0  0  0
 15 16  1  0  0  0  0
 15 17  2  0  0  0  0
 16 30  1  0  0  0  0
 16 31  1  0  0  0  0
 16 32  1  0  0  0  0
 17 18  1  0  0  0  0
 17 33  1  0  0  0  0
 18 19  2  0  0  0  0
 18 34  1  0  0  0  0
 19 20  1  0  0  0  0
 19 35  1  0  0  0  0
 21 36  1  0  0  0  0
M  END
>  <Energy>
96.1683

$$$$

 OpenBabel04232614443D

 31 33  0  0  0  0  0  0  0  0999 V2000
    2.2552    0.2050    1.1218 C   0  0  0  0  0  0  0  0  0  0  0  0
    0.8774    0.1389    0.5318 C   0  0  0  0  0  0  0  0  0  0  0  0
    0.2371    1.2868    0.0627 C   0  0  0  0  0  0  0  0  0  0  0  0
   -1.0708    1.2119   -0.4084 C   0  0  0  0  0  0  0  0  0  0  0  0
   -1.7517   -0.0094   -0.4030 C   0  0  0  0  0  0  0  0  0  0  0  0
   -1.1296   -1.1943    0.0315 C   0  0  0  0  0  0  0  0  0  0  0  0
   -1.8435   -2.4966    0.0189 C   0  0  0  0  0  0  0  0  0  0  0  0
   -2.6233   -2.9375   -1.0561 C   0  0  0  0  0  0  0  0  0  0  0  0
   -2.7093   -2.2470   -2.2321 O   0  0  0  0  0  0  0  0  0  0  0  0
   -3.3296   -4.0893   -1.0879 N   0  0  0  0  0  0  0  0  0  0  0  0
   -3.2483   -4.9072   -0.0287 C   0  0  0  0  0  0  0  0  0  0  0  0
   -3.9406   -6.1093   -0.0282 C   0  0  0  0  0  0  0  0  0  0  0  0
   -3.8340   -6.9810    1.0500 C   0  0  0  0  0  0  0  0  0  0  0  0
   -4.6707   -8.4787    1.0510 Cl  0  0  0  0  0  0  0  0  0  0  0  0
   -3.0350   -6.6133    2.1177 C   0  0  0  0  0  0  0  0  0  0  0  0
   -2.3559   -5.4454    2.1739 N   0  0  0  0  0  0  0  0  0  0  0  0
   -2.4754   -4.6162    1.1053 C   0  0  0  0  0  0  0  0  0  0  0  0
   -1.8002   -3.3969    1.0988 C   0  0  0  0  0  0  0  0  0  0  0  0
   -1.0688   -3.0940    2.2328 O   0  0  0  0  0  0  0  0  0  0  0  0
    0.1971   -1.0897    0.4903 C   0  0  0  0  0  0  0  0  0  0  0  0
    2.6867    1.2075    1.0260 H   0  0  0  0  0  0  0  0  0  0  0  0
    2.9228   -0.4988    0.6165 H   0  0  0  0  0  0  0  0  0  0  0  0
    2.2138   -0.0410    2.1889 H   0  0  0  0  0  0  0  0  0  0  0  0
    0.7452    2.2482    0.0778 H   0  0  0  0  0  0  0  0  0  0  0  0
   -1.5710    2.1105   -0.7616 H   0  0  0  0  0  0  0  0  0  0  0  0
   -2.7888   -0.0190   -0.7373 H   0  0  0  0  0  0  0  0  0  0  0  0
   -1.9248   -1.6792   -2.2972 H   0  0  0  0  0  0  0  0  0  0  0  0
   -4.5569   -6.3637   -0.8848 H   0  0  0  0  0  0  0  0  0  0  0  0
   -2.9088   -7.2645    2.9791 H   0  0  0  0  0  0  0  0  0  0  0  0
   -1.1922   -3.8626    2.8302 H   0  0  0  0  0  0  0  0  0  0  0  0
    0.7141   -1.9779    0.8522 H   0  0  0  0  0  0  0  0  0  0  0  0
  1  2  1  0  0  0  0
  1 21  1  0  0  0  0
  1 22  1  0  0  0  0
  1 23  1  0  0  0  0
  2  3  1  0  0  0  0
  2 20  2  0  0  0  0
  3  4  2  0  0  0  0
  3 24  1  0  0  0  0
  4  5  1  0  0  0  0
  4 25  1  0  0  0  0
  5  6  2  0  0  0  0
  5 26  1  0  0  0  0
  6  7  1  0  0  0  0
  6 20  1  0  0  0  0
  7  8  1  0  0  0  0
  7 18  2  0  0  0  0
  8  9  1  0  0  0  0
  8 10  2  0  0  0  0
  9 27  1  0  0  0  0
 10 11  1  0  0  0  0
 11 12  1  0  0  0  0
 11 17  2  0  0  0  0
 12 13  2  0  0  0  0
 12 28  1  0  0  0  0
 13 14  1  0  0  0  0
 13 15  1  0  0  0  0
 15 16  2  0  0  0  0
 15 29  1  0  0  0  0
 16 17  1  0  0  0  0
 17 18  1  0  0  0  0
 18 19  1  0  0  0  0
 19 30  1  0  0  0  0
 20 31  1  0  0  0  0
M  END
>  <Energy>
72.0616

$$$$

 OpenBabel04232614443D

 22 23  0  0  0  0  0  0  0  0999 V2000
    4.0360    0.4867    2.1805 O   0  0  0  0  0  0  0  0  0  0  0  0
    3.8763    0.3679    0.8596 C   0  0  0  0  0  0  0  0  0  0  0  0
    4.1021   -0.8437    0.3670 N   0  0  0  0  0  0  0  0  0  0  0  0
    3.9292   -0.6890   -1.0033 O   0  0  0  0  0  0  0  0  0  0  0  0
    3.5956    0.6043   -1.2659 C   0  0  0  0  0  0  0  0  0  0  0  0
    3.4048    0.8588   -2.5504 O   0  0  0  0  0  0  0  0  0  0  0  0
    3.5338    1.3357   -0.0993 C   0  0  0  0  0  0  0  0  0  0  0  0
    3.2250    2.7484   -0.0211 C   0  0  0  0  0  0  0  0  0  0  0  0
    3.7728    3.4947   -1.0234 N   0  0  0  0  0  0  0  0  0  0  0  0
    3.5218    4.8235   -1.0523 C   0  0  0  0  0  0  0  0  0  0  0  0
    2.7633    5.4824   -0.1036 C   0  0  0  0  0  0  0  0  0  0  0  0
    2.5171    6.9564   -0.1938 C   0  0  0  0  0  0  0  0  0  0  0  0
    3.0673    7.5350   -1.2960 F   0  0  0  0  0  0  0  0  0  0  0  0
    1.1903    7.2582   -0.2357 F   0  0  0  0  0  0  0  0  0  0  0  0
    3.0205    7.6318    0.8741 F   0  0  0  0  0  0  0  0  0  0  0  0
    2.2235    4.7137    0.9333 C   0  0  0  0  0  0  0  0  0  0  0  0
    2.4370    3.3302    0.9741 C   0  0  0  0  0  0  0  0  0  0  0  0
    1.6279    2.4553    2.2223 Cl  0  0  0  0  0  0  0  0  0  0  0  0
    4.2347   -0.4070    2.5068 H   0  0  0  0  0  0  0  0  0  0  0  0
    3.6391    0.0293   -3.0023 H   0  0  0  0  0  0  0  0  0  0  0  0
    3.9678    5.3483   -1.8973 H   0  0  0  0  0  0  0  0  0  0  0  0
    1.6143    5.1921    1.6985 H   0  0  0  0  0  0  0  0  0  0  0  0
  1  2  1  0  0  0  0
  1 19  1  0  0  0  0
  2  3  2  0  0  0  0
  2  7  1  0  0  0  0
  3  4  1  0  0  0  0
  4  5  1  0  0  0  0
  5  6  1  0  0  0  0
  5  7  2  0  0  0  0
  6 20  1  0  0  0  0
  7  8  1  0  0  0  0
  8  9  1  0  0  0  0
  8 17  2  0  0  0  0
  9 10  2  0  0  0  0
 10 11  1  0  0  0  0
 10 21  1  0  0  0  0
 11 12  1  0  0  0  0
 11 16  2  0  0  0  0
 12 13  1  0  0  0  0
 12 14  1  0  0  0  0
 12 15  1  0  0  0  0
 16 17  1  0  0  0  0
 16 22  1  0  0  0  0
 17 18  1  0  0  0  0
M  END
>  <Energy>
14.7315

$$$$

 OpenBabel04232614443D

 32 34  0  0  0  0  0  0  0  0999 V2000
    0.9852    0.7353   -0.0006 C   0  0  0  0  0  0  0  0  0  0  0  0
    2.4644    0.4442    0.0688 C   0  0  0  0  0  0  0  0  0  0  0  0
    3.2785    1.4484    0.1683 N   0  0  0  0  0  0  0  0  0  0  0  0
    4.6572    1.1972    0.1701 C   0  0  0  0  0  0  0  0  0  0  0  0
    5.5356    2.2826    0.1491 C   0  0  0  0  0  0  0  0  0  0  0  0
    6.9172    2.0799    0.0646 C   0  0  0  0  0  0  0  0  0  0  0  0
    7.4342    0.7858    0.0177 C   0  0  0  0  0  0  0  0  0  0  0  0
    6.5704   -0.3082    0.0495 C   0  0  0  0  0  0  0  0  0  0  0  0
    5.1885   -0.0922    0.1181 C   0  0  0  0  0  0  0  0  0  0  0  0
    4.2422   -1.2143    0.0066 C   0  0  0  0  0  0  0  0  0  0  0  0
    4.6497   -2.3547   -0.2167 O   0  0  0  0  0  0  0  0  0  0  0  0
    2.8915   -0.8724    0.0344 N   0  0  0  0  0  0  0  0  0  0  0  0
    2.0296   -1.8789   -0.4679 N   0  0  0  0  0  0  0  0  0  0  0  0
    1.2291   -2.6759    0.3430 C   0  0  0  0  0  0  0  0  0  0  0  0
    0.9676   -2.4317    1.9844 S   0  0  0  0  0  0  0  0  0  0  0  0
    0.6745   -3.7263   -0.4553 N   0  0  0  0  0  0  0  0  0  0  0  0
    0.6544   -3.8159   -1.8471 C   0  0  0  0  0  0  0  0  0  0  0  0
    0.1200   -5.0266   -2.2271 C   0  0  0  0  0  0  0  0  0  0  0  0
   -0.2854   -5.6854   -1.0540 C   0  0  0  0  0  0  0  0  0  0  0  0
    0.0202   -4.8615    0.0069 C   0  0  0  0  0  0  0  0  0  0  0  0
    0.8270    1.7642   -0.3447 H   0  0  0  0  0  0  0  0  0  0  0  0
    0.5527    0.6401    0.9985 H   0  0  0  0  0  0  0  0  0  0  0  0
    0.4656    0.0666   -0.6898 H   0  0  0  0  0  0  0  0  0  0  0  0
    5.1373    3.2927    0.1689 H   0  0  0  0  0  0  0  0  0  0  0  0
    7.5863    2.9363    0.0213 H   0  0  0  0  0  0  0  0  0  0  0  0
    8.5074    0.6301   -0.0622 H   0  0  0  0  0  0  0  0  0  0  0  0
    6.9689   -1.3173   -0.0119 H   0  0  0  0  0  0  0  0  0  0  0  0
    2.4547   -2.3300   -1.2789 H   0  0  0  0  0  0  0  0  0  0  0  0
    1.0080   -3.0105   -2.4751 H   0  0  0  0  0  0  0  0  0  0  0  0
    0.0127   -5.3749   -3.2472 H   0  0  0  0  0  0  0  0  0  0  0  0
   -0.7646   -6.6538   -0.9848 H   0  0  0  0  0  0  0  0  0  0  0  0
   -0.1447   -5.0122    1.0654 H   0  0  0  0  0  0  0  0  0  0  0  0
  1  2  1  0  0  0  0
  1 21  1  0  0  0  0
  1 22  1  0  0  0  0
  1 23  1  0  0  0  0
  2  3  2  0  0  0  0
  2 12  1  0  0  0  0
  3  4  1  0  0  0  0
  4  5  1  0  0  0  0
  4  9  2  0  0  0  0
  5  6  2  0  0  0  0
  5 24  1  0  0  0  0
  6  7  1  0  0  0  0
  6 25  1  0  0  0  0
  7  8  2  0  0  0  0
  7 26  1  0  0  0  0
  8  9  1  0  0  0  0
  8 27  1  0  0  0  0
  9 10  1  0  0  0  0
 10 11  2  0  0  0  0
 10 12  1  0  0  0  0
 12 13  1  0  0  0  0
 13 14  1  0  0  0  0
 13 28  1  0  0  0  0
 14 15  2  0  0  0  0
 14 16  1  0  0  0  0
 16 17  1  0  0  0  0
 16 20  1  0  0  0  0
 17 18  2  0  0  0  0
 17 29  1  0  0  0  0
 18 19  1  0  0  0  0
 18 30  1  0  0  0  0
 19 20  2  0  0  0  0
 19 31  1  0  0  0  0
 20 32  1  0  0  0  0
M  END
>  <Energy>
83.3412

$$$$

 OpenBabel04232614443D

 34 38  0  0  1  0  0  0  0  0999 V2000
    0.7898    0.1524   -0.1217 O   0  0  0  0  0  0  0  0  0  0  0  0
    1.9755   -0.0615    0.0749 C   0  0  0  0  0  0  0  0  0  0  0  0
    2.5843   -1.4377   -0.0181 C   0  0  0  0  0  0  0  0  0  0  0  0
    4.0832   -1.1935   -0.0447 C   0  0  1  0  0  0  0  0  0  0  0  0
    4.7474   -2.2114    0.7056 O   0  0  0  0  0  0  0  0  0  0  0  0
    4.7905   -0.9622   -1.3523 C   0  0  0  0  0  0  0  0  0  0  0  0
    4.6952   -1.6611   -2.5438 C   0  0  0  0  0  0  0  0  0  0  0  0
    5.5163   -1.2695   -3.6058 C   0  0  0  0  0  0  0  0  0  0  0  0
    6.4399   -0.2217   -3.4560 C   0  0  0  0  0  0  0  0  0  0  0  0
    6.4919    0.5139   -2.2727 C   0  0  0  0  0  0  0  0  0  0  0  0
    5.6303    0.1571   -1.2527 C   0  0  0  0  0  0  0  0  0  0  0  0
    5.3230    0.8864   -0.0868 N   0  0  0  0  0  0  0  0  0  0  0  0
    5.4079    2.2678   -0.0582 C   0  0  0  0  0  0  0  0  0  0  0  0
    6.4187    2.9067   -0.3483 O   0  0  0  0  0  0  0  0  0  0  0  0
    4.1156    2.9802    0.1996 C   0  0  0  0  0  0  0  0  0  0  0  0
    4.0759    4.3780    0.0787 C   0  0  0  0  0  0  0  0  0  0  0  0
    2.8549    5.0498    0.1295 C   0  0  0  0  0  0  0  0  0  0  0  0
    1.6712    4.3350    0.3003 C   0  0  0  0  0  0  0  0  0  0  0  0
    1.7018    2.9417    0.4080 C   0  0  0  0  0  0  0  0  0  0  0  0
    2.9160    2.2543    0.3543 C   0  0  0  0  0  0  0  0  0  0  0  0
    2.9776    0.8510    0.3867 N   0  0  0  0  0  0  0  0  0  0  0  0
    4.2351    0.2057    0.5939 C   0  0  1  0  0  0  0  0  0  0  0  0
    2.2228   -1.9514   -0.9138 H   0  0  0  0  0  0  0  0  0  0  0  0
    2.2786   -2.0046    0.8692 H   0  0  0  0  0  0  0  0  0  0  0  0
    5.5513   -2.4730    0.2199 H   0  0  0  0  0  0  0  0  0  0  0  0
    3.9874   -2.4744   -2.6713 H   0  0  0  0  0  0  0  0  0  0  0  0
    5.4424   -1.7799   -4.5639 H   0  0  0  0  0  0  0  0  0  0  0  0
    7.0977    0.0436   -4.2806 H   0  0  0  0  0  0  0  0  0  0  0  0
    7.1784    1.3490   -2.1704 H   0  0  0  0  0  0  0  0  0  0  0  0
    4.9897    4.9379   -0.1069 H   0  0  0  0  0  0  0  0  0  0  0  0
    2.8225    6.1303    0.0094 H   0  0  0  0  0  0  0  0  0  0  0  0
    0.7175    4.8556    0.3309 H   0  0  0  0  0  0  0  0  0  0  0  0
    0.7576    2.4163    0.5333 H   0  0  0  0  0  0  0  0  0  0  0  0
    4.4480    0.1658    1.6697 H   0  0  0  0  0  0  0  0  0  0  0  0
  1  2  2  0  0  0  0
  2  3  1  0  0  0  0
  2 21  1  0  0  0  0
  3  4  1  0  0  0  0
  3 23  1  0  0  0  0
  3 24  1  0  0  0  0
  4  5  1  1  0  0  0
  4  6  1  0  0  0  0
  4 22  1  0  0  0  0
  5 25  1  0  0  0  0
  6  7  1  0  0  0  0
  6 11  2  0  0  0  0
  7  8  2  0  0  0  0
  7 26  1  0  0  0  0
  8  9  1  0  0  0  0
  8 27  1  0  0  0  0
  9 10  2  0  0  0  0
  9 28  1  0  0  0  0
 10 11  1  0  0  0  0
 10 29  1  0  0  0  0
 11 12  1  0  0  0  0
 12 13  1  0  0  0  0
 12 22  1  0  0  0  0
 13 14  2  0  0  0  0
 13 15  1  0  0  0  0
 15 16  1  0  0  0  0
 15 20  2  0  0  0  0
 16 17  2  0  0  0  0
 16 30  1  0  0  0  0
 17 18  1  0  0  0  0
 17 31  1  0  0  0  0
 18 19  2  0  0  0  0
 18 32  1  0  0  0  0
 19 20  1  0  0  0  0
 19 33  1  0  0  0  0
 20 21  1  0  0  0  0
 21 22  1  0  0  0  0
 22 34  1  1  0  0  0
M  END
>  <Energy>
58.9755

$$$$

 OpenBabel04232614443D

 31 33  0  0  0  0  0  0  0  0999 V2000
    1.1880   -0.3272    0.2529 C   0  0  0  0  0  0  0  0  0  0  0  0
    2.5668    0.0335   -0.0325 N   0  0  0  0  0  0  0  0  0  0  0  0
    3.2738   -0.7079   -1.0492 C   0  0  0  0  0  0  0  0  0  0  0  0
    4.4276   -1.3704   -0.4109 C   0  0  0  0  0  0  0  0  0  0  0  0
    4.7460   -2.7064   -0.2423 C   0  0  0  0  0  0  0  0  0  0  0  0
    3.9461   -3.9200   -0.5742 C   0  0  0  0  0  0  0  0  0  0  0  0
    2.5696   -3.7617   -0.2326 O   0  0  0  0  0  0  0  0  0  0  0  0
    6.0100   -2.8267    0.2824 N   0  0  0  0  0  0  0  0  0  0  0  0
    6.4417   -1.5953    0.4396 C   0  0  0  0  0  0  0  0  0  0  0  0
    5.4968   -0.6607    0.0844 N   0  0  0  0  0  0  0  0  0  0  0  0
    5.6164    0.7491    0.1518 C   0  0  0  0  0  0  0  0  0  0  0  0
    6.8954    1.3206    0.0265 C   0  0  0  0  0  0  0  0  0  0  0  0
    7.0550    2.7085    0.0589 C   0  0  0  0  0  0  0  0  0  0  0  0
    5.9475    3.5292    0.2420 C   0  0  0  0  0  0  0  0  0  0  0  0
    6.1476    5.2364    0.2892 Cl  0  0  0  0  0  0  0  0  0  0  0  0
    4.6804    2.9747    0.3930 C   0  0  0  0  0  0  0  0  0  0  0  0
    4.4943    1.5805    0.3377 C   0  0  0  0  0  0  0  0  0  0  0  0
    3.1054    1.1210    0.6377 C   0  0  0  0  0  0  0  0  0  0  0  0
    2.4639    1.7567    1.4741 O   0  0  0  0  0  0  0  0  0  0  0  0
    0.8024   -1.0455   -0.4749 H   0  0  0  0  0  0  0  0  0  0  0  0
    0.5641    0.5723    0.2221 H   0  0  0  0  0  0  0  0  0  0  0  0
    1.1368   -0.7570    1.2574 H   0  0  0  0  0  0  0  0  0  0  0  0
    3.6058   -0.0100   -1.8273 H   0  0  0  0  0  0  0  0  0  0  0  0
    2.6126   -1.4324   -1.5341 H   0  0  0  0  0  0  0  0  0  0  0  0
    4.3287   -4.7931   -0.0356 H   0  0  0  0  0  0  0  0  0  0  0  0
    4.0102   -4.1279   -1.6466 H   0  0  0  0  0  0  0  0  0  0  0  0
    2.5596   -3.5580    0.7196 H   0  0  0  0  0  0  0  0  0  0  0  0
    7.4067   -1.3320    0.8496 H   0  0  0  0  0  0  0  0  0  0  0  0
    7.7830    0.7141   -0.1435 H   0  0  0  0  0  0  0  0  0  0  0  0
    8.0450    3.1427   -0.0639 H   0  0  0  0  0  0  0  0  0  0  0  0
    3.8268    3.6282    0.5716 H   0  0  0  0  0  0  0  0  0  0  0  0
  1  2  1  0  0  0  0
  1 20  1  0  0  0  0
  1 21  1  0  0  0  0
  1 22  1  0  0  0  0
  2  3  1  0  0  0  0
  2 18  1  0  0  0  0
  3  4  1  0  0  0  0
  3 23  1  0  0  0  0
  3 24  1  0  0  0  0
  4  5  2  0  0  0  0
  4 10  1  0  0  0  0
  5  6  1  0  0  0  0
  5  8  1  0  0  0  0
  6  7  1  0  0  0  0
  6 25  1  0  0  0  0
  6 26  1  0  0  0  0
  7 27  1  0  0  0  0
  8  9  2  0  0  0  0
  9 10  1  0  0  0  0
  9 28  1  0  0  0  0
 10 11  1  0  0  0  0
 11 12  1  0  0  0  0
 11 17  2  0  0  0  0
 12 13  2  0  0  0  0
 12 29  1  0  0  0  0
 13 14  1  0  0  0  0
 13 30  1  0  0  0  0
 14 15  1  0  0  0  0
 14 16  2  0  0  0  0
 16 17  1  0  0  0  0
 16 31  1  0  0  0  0
 17 18  1  0  0  0  0
 18 19  2  0  0  0  0
M  END
>  <Energy>
23.2061

$$$$

 OpenBabel04232614443D

 33 35  0  0  0  0  0  0  0  0999 V2000
    1.3814    0.3809   -0.7204 O   0  0  0  0  0  0  0  0  0  0  0  0
    2.3890    0.0554   -0.0877 C   0  0  0  0  0  0  0  0  0  0  0  0
    3.0068    1.0625    0.8326 C   0  0  0  0  0  0  0  0  0  0  0  0
    2.1725    1.8584    1.5260 C   0  0  0  0  0  0  0  0  0  0  0  0
    2.6642    2.8229    2.3766 N   0  0  0  0  0  0  0  0  0  0  0  0
    4.0079    3.0479    2.5966 C   0  0  0  0  0  0  0  0  0  0  0  0
    4.3912    3.8878    3.4070 O   0  0  0  0  0  0  0  0  0  0  0  0
    4.9361    2.2151    1.7673 C   0  0  0  0  0  0  0  0  0  0  0  0
    6.6303    2.4511    1.9342 Cl  0  0  0  0  0  0  0  0  0  0  0  0
    4.4331    1.3191    0.9041 C   0  0  0  0  0  0  0  0  0  0  0  0
    2.9497   -1.2056   -0.2100 N   0  0  0  0  0  0  0  0  0  0  0  0
    2.3917   -2.0718   -1.2634 C   0  0  0  0  0  0  0  0  0  0  0  0
    2.9672   -3.4970   -1.3142 C   0  0  0  0  0  0  0  0  0  0  0  0
    4.4651   -3.4512   -1.1621 C   0  0  0  0  0  0  0  0  0  0  0  0
    5.3264   -4.2421   -1.9238 C   0  0  0  0  0  0  0  0  0  0  0  0
    6.7052   -4.1146   -1.7588 C   0  0  0  0  0  0  0  0  0  0  0  0
    7.2218   -3.2054   -0.8323 C   0  0  0  0  0  0  0  0  0  0  0  0
    6.3630   -2.4366   -0.0434 C   0  0  0  0  0  0  0  0  0  0  0  0
    4.9805   -2.5658   -0.1963 C   0  0  0  0  0  0  0  0  0  0  0  0
    3.9823   -1.8061    0.6438 C   0  0  0  0  0  0  0  0  0  0  0  0
    1.0901    1.7813    1.4615 H   0  0  0  0  0  0  0  0  0  0  0  0
    2.0281    3.4165    2.8960 H   0  0  0  0  0  0  0  0  0  0  0  0
    5.0908    0.7618    0.2441 H   0  0  0  0  0  0  0  0  0  0  0  0
    2.5951   -1.5651   -2.2166 H   0  0  0  0  0  0  0  0  0  0  0  0
    1.3022   -2.1160   -1.1499 H   0  0  0  0  0  0  0  0  0  0  0  0
    2.6773   -3.9754   -2.2561 H   0  0  0  0  0  0  0  0  0  0  0  0
    2.5546   -4.1001   -0.4958 H   0  0  0  0  0  0  0  0  0  0  0  0
    4.9349   -4.9477   -2.6518 H   0  0  0  0  0  0  0  0  0  0  0  0
    7.3808   -4.7203   -2.3581 H   0  0  0  0  0  0  0  0  0  0  0  0
    8.2988   -3.1022   -0.7228 H   0  0  0  0  0  0  0  0  0  0  0  0
    6.7828   -1.7419    0.6788 H   0  0  0  0  0  0  0  0  0  0  0  0
    4.4728   -1.0904    1.2994 H   0  0  0  0  0  0  0  0  0  0  0  0
    3.4740   -2.5136    1.3115 H   0  0  0  0  0  0  0  0  0  0  0  0
  1  2  2  0  0  0  0
  2  3  1  0  0  0  0
  2 11  1  0  0  0  0
  3  4  2  0  0  0  0
  3 10  1  0  0  0  0
  4  5  1  0  0  0  0
  4 21  1  0  0  0  0
  5  6  1  0  0  0  0
  5 22  1  0  0  0  0
  6  7  2  0  0  0  0
  6  8  1  0  0  0  0
  8  9  1  0  0  0  0
  8 10  2  0  0  0  0
 10 23  1  0  0  0  0
 11 12  1  0  0  0  0
 11 20  1  0  0  0  0
 12 13  1  0  0  0  0
 12 24  1  0  0  0  0
 12 25  1  0  0  0  0
 13 14  1  0  0  0  0
 13 26  1  0  0  0  0
 13 27  1  0  0  0  0
 14 15  1  0  0  0  0
 14 19  2  0  0  0  0
 15 16  2  0  0  0  0
 15 28  1  0  0  0  0
 16 17  1  0  0  0  0
 16 29  1  0  0  0  0
 17 18  2  0  0  0  0
 17 30  1  0  0  0  0
 18 19  1  0  0  0  0
 18 31  1  0  0  0  0
 19 20  1  0  0  0  0
 20 32  1  0  0  0  0
 20 33  1  0  0  0  0
M  END
>  <Energy>
53.8626

$$$$

 OpenBabel04232614443D

 35 38  0  0  0  0  0  0  0  0999 V2000
    1.3409    0.4745   -0.7735 C   0  0  0  0  0  0  0  0  0  0  0  0
    2.4520    0.0001   -0.0204 O   0  0  0  0  0  0  0  0  0  0  0  0
    3.0424   -1.1548   -0.4661 C   0  0  0  0  0  0  0  0  0  0  0  0
    2.6209   -1.8996   -1.5668 C   0  0  0  0  0  0  0  0  0  0  0  0
    3.2981   -3.0644   -1.9487 C   0  0  0  0  0  0  0  0  0  0  0  0
    4.4185   -3.4899   -1.2117 C   0  0  0  0  0  0  0  0  0  0  0  0
    4.8215   -2.7348   -0.1098 C   0  0  0  0  0  0  0  0  0  0  0  0
    4.1523   -1.5676    0.2841 C   0  0  0  0  0  0  0  0  0  0  0  0
    5.9271   -3.3586    0.4327 N   0  0  0  0  0  0  0  0  0  0  0  0
    6.2317   -4.4767   -0.2946 C   0  0  0  0  0  0  0  0  0  0  0  0
    7.3041   -5.4271   -0.0980 C   0  0  0  0  0  0  0  0  0  0  0  0
    8.2552   -5.3599    0.9151 C   0  0  0  0  0  0  0  0  0  0  0  0
    9.2518   -6.3434    1.0013 C   0  0  0  0  0  0  0  0  0  0  0  0
    9.3030   -7.3956    0.0784 C   0  0  0  0  0  0  0  0  0  0  0  0
   10.2256   -8.4052    0.0650 O   0  0  0  0  0  0  0  0  0  0  0  0
   11.2239   -8.3763    1.0768 C   0  0  0  0  0  0  0  0  0  0  0  0
    8.3499   -7.4655   -0.9380 C   0  0  0  0  0  0  0  0  0  0  0  0
    7.3653   -6.4858   -1.0162 C   0  0  0  0  0  0  0  0  0  0  0  0
    6.4199   -6.6061   -2.0746 O   0  0  0  0  0  0  0  0  0  0  0  0
    5.3699   -5.6802   -2.2746 C   0  0  0  0  0  0  0  0  0  0  0  0
    4.5747   -5.8145   -3.1997 O   0  0  0  0  0  0  0  0  0  0  0  0
    5.3141   -4.5864   -1.3190 C   0  0  0  0  0  0  0  0  0  0  0  0
    1.0041    1.4134   -0.3250 H   0  0  0  0  0  0  0  0  0  0  0  0
    0.5073   -0.2347   -0.7299 H   0  0  0  0  0  0  0  0  0  0  0  0
    1.6263    0.6859   -1.8098 H   0  0  0  0  0  0  0  0  0  0  0  0
    1.7629   -1.6078   -2.1633 H   0  0  0  0  0  0  0  0  0  0  0  0
    2.9591   -3.6326   -2.8116 H   0  0  0  0  0  0  0  0  0  0  0  0
    4.4797   -0.9899    1.1432 H   0  0  0  0  0  0  0  0  0  0  0  0
    6.4275   -3.0243    1.2442 H   0  0  0  0  0  0  0  0  0  0  0  0
    8.2456   -4.5581    1.6465 H   0  0  0  0  0  0  0  0  0  0  0  0
    9.9766   -6.2586    1.8047 H   0  0  0  0  0  0  0  0  0  0  0  0
   11.8805   -9.2382    0.9253 H   0  0  0  0  0  0  0  0  0  0  0  0
   10.7772   -8.4678    2.0724 H   0  0  0  0  0  0  0  0  0  0  0  0
   11.8370   -7.4722    0.9993 H   0  0  0  0  0  0  0  0  0  0  0  0
    8.3765   -8.2755   -1.6611 H   0  0  0  0  0  0  0  0  0  0  0  0
  1  2  1  0  0  0  0
  1 23  1  0  0  0  0
  1 24  1  0  0  0  0
  1 25  1  0  0  0  0
  2  3  1  0  0  0  0
  3  4  1  0  0  0  0
  3  8  2  0  0  0  0
  4  5  2  0  0  0  0
  4 26  1  0  0  0  0
  5  6  1  0  0  0  0
  5 27  1  0  0  0  0
  6  7  2  0  0  0  0
  6 22  1  0  0  0  0
  7  8  1  0  0  0  0
  7  9  1  0  0  0  0
  8 28  1  0  0  0  0
  9 10  1  0  0  0  0
  9 29  1  0  0  0  0
 10 11  1  0  0  0  0
 10 22  2  0  0  0  0
 11 12  1  0  0  0  0
 11 18  2  0  0  0  0
 12 13  2  0  0  0  0
 12 30  1  0  0  0  0
 13 14  1  0  0  0  0
 13 31  1  0  0  0  0
 14 15  1  0  0  0  0
 14 17  2  0  0  0  0
 15 16  1  0  0  0  0
 16 32  1  0  0  0  0
 16 33  1  0  0  0  0
 16 34  1  0  0  0  0
 17 18  1  0  0  0  0
 17 35  1  0  0  0  0
 18 19  1  0  0  0  0
 19 20  1  0  0  0  0
 20 21  2  0  0  0  0
 20 22  1  0  0  0  0
M  END
>  <Energy>
68.8308

$$$$

 OpenBabel04232614443D

 25 27  0  0  0  0  0  0  0  0999 V2000
   -2.9773    0.9453    0.0948 O   0  0  0  0  0  0  0  0  0  0  0  0
   -1.8021    0.6387    0.0613 C   0  0  0  0  0  0  0  0  0  0  0  0
   -0.7253    1.5120    0.0543 N   0  0  0  0  0  0  0  0  0  0  0  0
    0.4869    0.8297    0.0370 C   0  0  0  0  0  0  0  0  0  0  0  0
    1.7488    1.3879    0.0286 C   0  0  0  0  0  0  0  0  0  0  0  0
    2.8363    0.5121    0.0060 C   0  0  0  0  0  0  0  0  0  0  0  0
    2.6378   -0.8808   -0.0089 C   0  0  0  0  0  0  0  0  0  0  0  0
    1.3475   -1.4249    0.0018 C   0  0  0  0  0  0  0  0  0  0  0  0
    0.2733   -0.5527    0.0283 C   0  0  0  0  0  0  0  0  0  0  0  0
   -1.1835   -0.7390    0.0426 C   0  0  0  0  0  0  0  0  0  0  0  0
   -1.8184   -1.9187    0.0245 C   0  0  0  0  0  0  0  0  0  0  0  0
   -3.2312   -2.0283   -0.0085 C   0  0  0  0  0  0  0  0  0  0  0  0
   -4.1482   -2.0026    1.0346 C   0  0  0  0  0  0  0  0  0  0  0  0
   -5.4399   -2.1639    0.4769 C   0  0  0  0  0  0  0  0  0  0  0  0
   -5.2508   -2.2860   -0.8770 C   0  0  0  0  0  0  0  0  0  0  0  0
   -6.6078   -2.5126   -2.1366 Br  0  0  0  0  0  0  0  0  0  0  0  0
   -3.9291   -2.2291   -1.1767 O   0  0  0  0  0  0  0  0  0  0  0  0
   -0.8412    2.5133    0.0602 H   0  0  0  0  0  0  0  0  0  0  0  0
    1.8984    2.4615    0.0379 H   0  0  0  0  0  0  0  0  0  0  0  0
    3.8490    0.9096   -0.0018 H   0  0  0  0  0  0  0  0  0  0  0  0
    3.5010   -1.5436   -0.0314 H   0  0  0  0  0  0  0  0  0  0  0  0
    1.2081   -2.5001   -0.0141 H   0  0  0  0  0  0  0  0  0  0  0  0
   -1.2631   -2.8493   -0.0113 H   0  0  0  0  0  0  0  0  0  0  0  0
   -3.9052   -1.8668    2.0792 H   0  0  0  0  0  0  0  0  0  0  0  0
   -6.3858   -2.1799    0.9993 H   0  0  0  0  0  0  0  0  0  0  0  0
  1  2  2  0  0  0  0
  2  3  1  0  0  0  0
  2 10  1  0  0  0  0
  3  4  1  0  0  0  0
  3 18  1  0  0  0  0
  4  5  1  0  0  0  0
  4  9  2  0  0  0  0
  5  6  2  0  0  0  0
  5 19  1  0  0  0  0
  6  7  1  0  0  0  0
  6 20  1  0  0  0  0
  7  8  2  0  0  0  0
  7 21  1  0  0  0  0
  8  9  1  0  0  0  0
  8 22  1  0  0  0  0
  9 10  1  0  0  0  0
 10 11  2  0  0  0  0
 11 12  1  0  0  0  0
 11 23  1  0  0  0  0
 12 13  2  0  0  0  0
 12 17  1  0  0  0  0
 13 14  1  0  0  0  0
 13 24  1  0  0  0  0
 14 15  2  0  0  0  0
 14 25  1  0  0  0  0
 15 16  1  0  0  0  0
 15 17  1  0  0  0  0
M  END
>  <Energy>
20.794

$$$$

 OpenBabel04232614442D

 44 45  0  0  1  0  0  0  0  0999 V2000
    0.0000    0.0000    0.0000 C   0  0  0  0  0  0  0  0  0  0  0  0
    0.0000    0.0000    0.0000 C   0  0  3  0  0  0  0  0  0  0  0  0
    0.0000    0.0000    0.0000 C   0  0  0  0  0  0  0  0  0  0  0  0
    0.0000    0.0000    0.0000 C   0  0  0  0  0  0  0  0  0  0  0  0
    0.0000    0.0000    0.0000 C   0  0  0  0  0  0  0  0  0  0  0  0
    0.0000    0.0000    0.0000 C   0  0  0  0  0  0  0  0  0  0  0  0
    0.0000    0.0000    0.0000 C   0  0  0  0  0  0  0  0  0  0  0  0
    0.0000    0.0000    0.0000 C   0  0  3  0  0  0  0  0  0  0  0  0
    0.0000    0.0000    0.0000 C   0  0  0  0  0  0  0  0  0  0  0  0
    0.0000    0.0000    0.0000 C   0  0  3  0  0  0  0  0  0  0  0  0
    0.0000    0.0000    0.0000 O   0  0  0  0  0  0  0  0  0  0  0  0
    0.0000    0.0000    0.0000 C   0  0  0  0  0  0  0  0  0  0  0  0
    0.0000    0.0000    0.0000 C   0  0  3  0  0  0  0  0  0  0  0  0
    0.0000    0.0000    0.0000 C   0  0  3  0  0  0  0  0  0  0  0  0
    0.0000    0.0000    0.0000 O   0  0  0  0  0  0  0  0  0  0  0  0
    0.0000    0.0000    0.0000 C   0  0  0  0  0  0  0  0  0  0  0  0
    0.0000    0.0000    0.0000 C   0  0  0  0  0  0  0  0  0  0  0  0
    0.0000    0.0000    0.0000 C   0  0  0  0  0  0  0  0  0  0  0  0
    0.0000    0.0000    0.0000 O   0  0  0  0  0  0  0  0  0  0  0  0
    0.0000    0.0000    0.0000 O   0  0  0  0  0  0  0  0  0  0  0  0
    0.0000    0.0000    0.0000 H   0  0  0  0  0  0  0  0  0  0  0  0
    0.0000    0.0000    0.0000 H   0  0  0  0  0  0  0  0  0  0  0  0
    0.0000    0.0000    0.0000 H   0  0  0  0  0  0  0  0  0  0  0  0
    0.0000    0.0000    0.0000 H   0  0  0  0  0  0  0  0  0  0  0  0
    0.0000    0.0000    0.0000 H   0  0  0  0  0  0  0  0  0  0  0  0
    0.0000    0.0000    0.0000 H   0  0  0  0  0  0  0  0  0  0  0  0
    0.0000    0.0000    0.0000 H   0  0  0  0  0  0  0  0  0  0  0  0
    0.0000    0.0000    0.0000 H   0  0  0  0  0  0  0  0  0  0  0  0
    0.0000    0.0000    0.0000 H   0  0  0  0  0  0  0  0  0  0  0  0
    0.0000    0.0000    0.0000 H   0  0  0  0  0  0  0  0  0  0  0  0
    0.0000    0.0000    0.0000 H   0  0  0  0  0  0  0  0  0  0  0  0
    0.0000    0.0000    0.0000 H   0  0  0  0  0  0  0  0  0  0  0  0
    0.0000    0.0000    0.0000 H   0  0  0  0  0  0  0  0  0  0  0  0
    0.0000    0.0000    0.0000 H   0  0  0  0  0  0  0  0  0  0  0  0
    0.0000    0.0000    0.0000 H   0  0  0  0  0  0  0  0  0  0  0  0
    0.0000    0.0000    0.0000 H   0  0  0  0  0  0  0  0  0  0  0  0
    0.0000    0.0000    0.0000 H   0  0  0  0  0  0  0  0  0  0  0  0
    0.0000    0.0000    0.0000 H   0  0  0  0  0  0  0  0  0  0  0  0
    0.0000    0.0000    0.0000 H   0  0  0  0  0  0  0  0  0  0  0  0
    0.0000    0.0000    0.0000 H   0  0  0  0  0  0  0  0  0  0  0  0
    0.0000    0.0000    0.0000 H   0  0  0  0  0  0  0  0  0  0  0  0
    0.0000    0.0000    0.0000 H   0  0  0  0  0  0  0  0  0  0  0  0
    0.0000    0.0000    0.0000 H   0  0  0  0  0  0  0  0  0  0  0  0
    0.0000    0.0000    0.0000 H   0  0  0  0  0  0  0  0  0  0  0  0
  1  2  1  0  0  0  0
  1 21  1  0  0  0  0
  1 22  1  0  0  0  0
  1 23  1  0  0  0  0
  2 20  1  0  0  0  0
  2  3  1  0  0  0  0
  2 24  1  0  0  0  0
  3  4  1  0  0  0  0
  3 25  1  0  0  0  0
  3 26  1  0  0  0  0
  4  5  1  0  0  0  0
  4 27  1  0  0  0  0
  4 28  1  0  0  0  0
  5  6  1  1  0  0  0
  5 29  1  0  0  0  0
  5 30  1  0  0  0  0
  6  7  2  0  0  0  0
  6 31  1  6  0  0  0
  7  8  1  6  0  0  0
  7 32  1  1  0  0  0
  8 13  1  0  0  0  0
  8  9  1  0  0  0  0
  8 33  1  0  0  0  0
  9 10  1  0  0  0  0
  9 34  1  0  0  0  0
  9 35  1  0  0  0  0
 10 11  1  0  0  0  0
 10 12  1  0  0  0  0
 10 36  1  0  0  0  0
 11 37  1  0  0  0  0
 12 13  1  0  0  0  0
 12 38  1  0  0  0  0
 12 39  1  0  0  0  0
 13 14  1  0  0  0  0
 13 40  1  0  0  0  0
 14 15  1  0  0  0  0
 14 16  1  1  0  0  0
 14 41  1  0  0  0  0
 15 42  1  0  0  0  0
 16 17  2  0  0  0  0
 16 43  1  6  0  0  0
 17 18  1  1  0  0  0
 17 44  1  6  0  0  0
 18 19  2  0  0  0  0
 18 20  1  0  0  0  0
M  END
>  <Energy>
3.87847e+10

$$$$

 OpenBabel04232614443D

 30 32  0  0  1  0  0  0  0  0999 V2000
    0.9242    0.0285   -0.0076 C   0  0  0  0  0  0  0  0  0  0  0  0
    2.4450   -0.0802   -0.0504 C   0  0  3  0  0  0  0  0  0  0  0  0
    3.0235    1.1154    0.5220 N   0  0  0  0  0  0  0  0  0  0  0  0
    4.4237    1.1859    0.6721 C   0  0  0  0  0  0  0  0  0  0  0  0
    5.2163    0.0256    0.7557 C   0  0  0  0  0  0  0  0  0  0  0  0
    6.5957    0.0567    0.9775 C   0  0  0  0  0  0  0  0  0  0  0  0
    7.2172    1.2813    1.1426 C   0  0  0  0  0  0  0  0  0  0  0  0
    8.9153    1.3524    1.4030 Cl  0  0  0  0  0  0  0  0  0  0  0  0
    6.4716    2.4578    1.1024 C   0  0  0  0  0  0  0  0  0  0  0  0
    5.0782    2.4320    0.8774 C   0  0  0  0  0  0  0  0  0  0  0  0
    4.3645    3.7122    0.8362 C   0  0  0  0  0  0  0  0  0  0  0  0
    3.0696    4.0854    1.2986 C   0  0  0  0  0  0  0  0  0  0  0  0
    2.8928    5.4069    0.9608 C   0  0  0  0  0  0  0  0  0  0  0  0
    4.0020    5.8895    0.3495 O   0  0  0  0  0  0  0  0  0  0  0  0
    4.8910    4.8656    0.2833 C   0  0  0  0  0  0  0  0  0  0  0  0
    4.4649   -1.5533    0.5741 S   0  0  0  0  0  0  0  0  0  0  0  0
    4.8430   -2.3617    1.7090 O   0  0  0  0  0  0  0  0  0  0  0  0
    4.6878   -1.9774   -0.7905 O   0  0  0  0  0  0  0  0  0  0  0  0
    2.8443   -1.1984    0.7590 N   0  0  0  0  0  0  0  0  0  0  0  0
    0.5775    0.8851   -0.5961 H   0  0  0  0  0  0  0  0  0  0  0  0
    0.5563    0.1596    1.0167 H   0  0  0  0  0  0  0  0  0  0  0  0
    0.4591   -0.8758   -0.4149 H   0  0  0  0  0  0  0  0  0  0  0  0
    2.7458   -0.1999   -1.0974 H   0  0  0  0  0  0  0  0  0  0  0  0
    2.6719    1.9497    0.0537 H   0  0  0  0  0  0  0  0  0  0  0  0
    7.1692   -0.8669    1.0205 H   0  0  0  0  0  0  0  0  0  0  0  0
    6.9872    3.4029    1.2622 H   0  0  0  0  0  0  0  0  0  0  0  0
    2.3439    3.4675    1.8093 H   0  0  0  0  0  0  0  0  0  0  0  0
    2.0823    6.1125    1.0830 H   0  0  0  0  0  0  0  0  0  0  0  0
    5.8341    5.1126   -0.1867 H   0  0  0  0  0  0  0  0  0  0  0  0
    2.5976   -1.1208    1.7439 H   0  0  0  0  0  0  0  0  0  0  0  0
  1  2  1  0  0  0  0
  1 20  1  0  0  0  0
  1 21  1  0  0  0  0
  1 22  1  0  0  0  0
  2  3  1  0  0  0  0
  2 19  1  0  0  0  0
  2 23  1  0  0  0  0
  3  4  1  0  0  0  0
  3 24  1  0  0  0  0
  4  5  1  0  0  0  0
  4 10  2  0  0  0  0
  5  6  2  0  0  0  0
  5 16  1  0  0  0  0
  6  7  1  0  0  0  0
  6 25  1  0  0  0  0
  7  8  1  0  0  0  0
  7  9  2  0  0  0  0
  9 10  1  0  0  0  0
  9 26  1  0  0  0  0
 10 11  1  0  0  0  0
 11 12  1  0  0  0  0
 11 15  2  0  0  0  0
 12 13  2  0  0  0  0
 12 27  1  0  0  0  0
 13 14  1  0  0  0  0
 13 28  1  0  0  0  0
 14 15  1  0  0  0  0
 15 29  1  0  0  0  0
 16 17  2  0  0  0  0
 16 18  2  0  0  0  0
 16 19  1  0  0  0  0
 19 30  1  0  0  0  0
M  END
>  <Energy>
-132.234

$$$$

 OpenBabel04232614443D

 35 38  0  0  0  0  0  0  0  0999 V2000
    1.4997    0.3403   -1.8896 S   0  0  0  0  0  0  0  0  0  0  0  0
    2.9976    0.0218   -1.1913 C   0  0  0  0  0  0  0  0  0  0  0  0
    3.4117    0.4044    0.0782 N   0  0  0  0  0  0  0  0  0  0  0  0
    2.9924    1.3899    0.9969 C   0  0  0  0  0  0  0  0  0  0  0  0
    2.0233    2.3634    0.7638 C   0  0  0  0  0  0  0  0  0  0  0  0
    1.7429    3.3365    1.7319 C   0  0  0  0  0  0  0  0  0  0  0  0
    2.4357    3.3515    2.9394 C   0  0  0  0  0  0  0  0  0  0  0  0
    3.4089    2.3901    3.1836 C   0  0  0  0  0  0  0  0  0  0  0  0
    3.6840    1.4183    2.2188 C   0  0  0  0  0  0  0  0  0  0  0  0
    3.9755   -0.6813   -1.9022 N   0  0  0  0  0  0  0  0  0  0  0  0
    3.9777   -1.0216   -3.3521 C   0  0  0  0  0  0  0  0  0  0  0  0
    5.3969   -1.5607   -3.6414 C   0  0  0  0  0  0  0  0  0  0  0  0
    5.9972   -1.5680   -2.3230 N   0  0  0  0  0  0  0  0  0  0  0  0
    5.1758   -1.0716   -1.3663 C   0  0  0  0  0  0  0  0  0  0  0  0
    5.7267   -1.0601   -0.1838 N   0  0  0  0  0  0  0  0  0  0  0  0
    7.0050   -1.5411   -0.4253 C   0  0  0  0  0  0  0  0  0  0  0  0
    8.0612   -1.7346    0.4764 C   0  0  0  0  0  0  0  0  0  0  0  0
    9.2939   -2.1795   -0.0190 C   0  0  0  0  0  0  0  0  0  0  0  0
    9.4717   -2.4314   -1.3810 C   0  0  0  0  0  0  0  0  0  0  0  0
    8.4253   -2.2717   -2.2991 C   0  0  0  0  0  0  0  0  0  0  0  0
    7.2051   -1.8323   -1.7845 C   0  0  0  0  0  0  0  0  0  0  0  0
    4.2389   -0.1055    0.3914 H   0  0  0  0  0  0  0  0  0  0  0  0
    1.4802    2.4288   -0.1692 H   0  0  0  0  0  0  0  0  0  0  0  0
    0.9884    4.0919    1.5297 H   0  0  0  0  0  0  0  0  0  0  0  0
    2.2216    4.1147    3.6821 H   0  0  0  0  0  0  0  0  0  0  0  0
    3.9647    2.3992    4.1182 H   0  0  0  0  0  0  0  0  0  0  0  0
    4.4602    0.6851    2.4296 H   0  0  0  0  0  0  0  0  0  0  0  0
    3.7556   -0.1300   -3.9476 H   0  0  0  0  0  0  0  0  0  0  0  0
    3.2127   -1.7826   -3.5405 H   0  0  0  0  0  0  0  0  0  0  0  0
    5.3893   -2.5795   -4.0365 H   0  0  0  0  0  0  0  0  0  0  0  0
    5.9752   -0.8893   -4.2821 H   0  0  0  0  0  0  0  0  0  0  0  0
    7.9213   -1.5279    1.5316 H   0  0  0  0  0  0  0  0  0  0  0  0
   10.1233   -2.3208    0.6706 H   0  0  0  0  0  0  0  0  0  0  0  0
   10.4464   -2.7609   -1.7368 H   0  0  0  0  0  0  0  0  0  0  0  0
    8.5693   -2.4697   -3.3553 H   0  0  0  0  0  0  0  0  0  0  0  0
  1  2  2  0  0  0  0
  2  3  1  0  0  0  0
  2 10  1  0  0  0  0
  3  4  1  0  0  0  0
  3 22  1  0  0  0  0
  4  5  1  0  0  0  0
  4  9  2  0  0  0  0
  5  6  2  0  0  0  0
  5 23  1  0  0  0  0
  6  7  1  0  0  0  0
  6 24  1  0  0  0  0
  7  8  2  0  0  0  0
  7 25  1  0  0  0  0
  8  9  1  0  0  0  0
  8 26  1  0  0  0  0
  9 27  1  0  0  0  0
 10 11  1  0  0  0  0
 10 14  1  0  0  0  0
 11 12  1  0  0  0  0
 11 28  1  0  0  0  0
 11 29  1  0  0  0  0
 12 13  1  0  0  0  0
 12 30  1  0  0  0  0
 12 31  1  0  0  0  0
 13 14  1  0  0  0  0
 13 21  1  0  0  0  0
 14 15  2  0  0  0  0
 15 16  1  0  0  0  0
 16 17  1  0  0  0  0
 16 21  2  0  0  0  0
 17 18  2  0  0  0  0
 17 32  1  0  0  0  0
 18 19  1  0  0  0  0
 18 33  1  0  0  0  0
 19 20  2  0  0  0  0
 19 34  1  0  0  0  0
 20 21  1  0  0  0  0
 20 35  1  0  0  0  0
M  END
>  <Energy>
4.07795

$$$$

 OpenBabel04232614443D

 39 41  0  0  0  0  0  0  0  0999 V2000
    2.8909    0.3865    1.3129 C   0  0  0  0  0  0  0  0  0  0  0  0
    1.5254    0.2547    0.8699 N   0  0  0  0  0  0  0  0  0  0  0  0
    0.8945    1.1178    0.0222 C   0  0  0  0  0  0  0  0  0  0  0  0
    1.3252    2.1208   -0.5268 O   0  0  0  0  0  0  0  0  0  0  0  0
   -0.4710    0.6194   -0.1344 C   0  0  0  0  0  0  0  0  0  0  0  0
   -1.5292    1.1103   -0.8665 C   0  0  0  0  0  0  0  0  0  0  0  0
   -2.7318    0.3924   -0.8024 C   0  0  0  0  0  0  0  0  0  0  0  0
   -2.8571   -0.8002   -0.0359 C   0  0  0  0  0  0  0  0  0  0  0  0
   -4.1923   -1.4753   -0.0292 C   0  0  0  0  0  0  0  0  0  0  0  0
   -5.1929   -0.7883   -0.2077 O   0  0  0  0  0  0  0  0  0  0  0  0
   -4.2359   -2.8478    0.1590 N   0  0  0  0  0  0  0  0  0  0  0  0
   -5.5080   -3.5878    0.1597 C   0  0  0  0  0  0  0  0  0  0  0  0
   -5.4183   -4.8240    1.0721 C   0  0  0  0  0  0  0  0  0  0  0  0
   -6.6949   -5.6613    1.0477 C   0  0  0  0  0  0  0  0  0  0  0  0
   -7.0430   -6.0939   -0.3683 C   0  0  0  0  0  0  0  0  0  0  0  0
   -7.1715   -4.8836   -1.2875 C   0  0  0  0  0  0  0  0  0  0  0  0
   -5.9132   -4.0087   -1.2651 C   0  0  0  0  0  0  0  0  0  0  0  0
   -1.7638   -1.2660    0.7077 C   0  0  0  0  0  0  0  0  0  0  0  0
   -0.5914   -0.5284    0.6316 C   0  0  0  0  0  0  0  0  0  0  0  0
    0.6981   -0.7554    1.2798 C   0  0  0  0  0  0  0  0  0  0  0  0
    0.9235   -1.6858    2.0285 O   0  0  0  0  0  0  0  0  0  0  0  0
    3.3738    1.2481    0.8458 H   0  0  0  0  0  0  0  0  0  0  0  0
    3.4343   -0.5293    1.0625 H   0  0  0  0  0  0  0  0  0  0  0  0
    2.8945    0.5021    2.4008 H   0  0  0  0  0  0  0  0  0  0  0  0
   -1.4359    2.0126   -1.4634 H   0  0  0  0  0  0  0  0  0  0  0  0
   -3.5908    0.7611   -1.3641 H   0  0  0  0  0  0  0  0  0  0  0  0
   -3.3849   -3.3898    0.0968 H   0  0  0  0  0  0  0  0  0  0  0  0
   -6.2767   -2.9115    0.5570 H   0  0  0  0  0  0  0  0  0  0  0  0
   -5.2283   -4.5317    2.1098 H   0  0  0  0  0  0  0  0  0  0  0  0
   -4.5708   -5.4483    0.7601 H   0  0  0  0  0  0  0  0  0  0  0  0
   -7.5236   -5.0796    1.4705 H   0  0  0  0  0  0  0  0  0  0  0  0
   -6.5662   -6.5437    1.6847 H   0  0  0  0  0  0  0  0  0  0  0  0
   -7.9799   -6.6631   -0.3610 H   0  0  0  0  0  0  0  0  0  0  0  0
   -6.2632   -6.7658   -0.7480 H   0  0  0  0  0  0  0  0  0  0  0  0
   -8.0383   -4.2856   -0.9799 H   0  0  0  0  0  0  0  0  0  0  0  0
   -7.3679   -5.2256   -2.3102 H   0  0  0  0  0  0  0  0  0  0  0  0
   -6.0791   -3.1230   -1.8893 H   0  0  0  0  0  0  0  0  0  0  0  0
   -5.0890   -4.5647   -1.7306 H   0  0  0  0  0  0  0  0  0  0  0  0
   -1.8047   -2.1467    1.3380 H   0  0  0  0  0  0  0  0  0  0  0  0
  1  2  1  0  0  0  0
  1 22  1  0  0  0  0
  1 23  1  0  0  0  0
  1 24  1  0  0  0  0
  2  3  1  0  0  0  0
  2 20  1  0  0  0  0
  3  4  2  0  0  0  0
  3  5  1  0  0  0  0
  5  6  1  0  0  0  0
  5 19  2  0  0  0  0
  6  7  2  0  0  0  0
  6 25  1  0  0  0  0
  7  8  1  0  0  0  0
  7 26  1  0  0  0  0
  8  9  1  0  0  0  0
  8 18  2  0  0  0  0
  9 10  2  0  0  0  0
  9 11  1  0  0  0  0
 11 12  1  0  0  0  0
 11 27  1  0  0  0  0
 12 13  1  0  0  0  0
 12 17  1  0  0  0  0
 12 28  1  0  0  0  0
 13 14  1  0  0  0  0
 13 29  1  0  0  0  0
 13 30  1  0  0  0  0
 14 15  1  0  0  0  0
 14 31  1  0  0  0  0
 14 32  1  0  0  0  0
 15 16  1  0  0  0  0
 15 33  1  0  0  0  0
 15 34  1  0  0  0  0
 16 17  1  0  0  0  0
 16 35  1  0  0  0  0
 16 36  1  0  0  0  0
 17 37  1  0  0  0  0
 17 38  1  0  0  0  0
 18 19  1  0  0  0  0
 18 39  1  0  0  0  0
 19 20  1  0  0  0  0
 20 21  2  0  0  0  0
M  END
>  <Energy>
-17.67

$$$$

 OpenBabel04232614443D

 34 37  0  0  0  0  0  0  0  0999 V2000
    2.3240   -0.5712    0.2799 C   0  0  0  0  0  0  0  0  0  0  0  0
    0.8409   -0.3584    0.2190 C   0  0  0  0  0  0  0  0  0  0  0  0
    0.3122    0.9090   -0.0276 C   0  0  0  0  0  0  0  0  0  0  0  0
   -1.0701    1.0894   -0.1301 C   0  0  0  0  0  0  0  0  0  0  0  0
   -1.9689    0.0129   -0.0025 C   0  0  0  0  0  0  0  0  0  0  0  0
   -3.4190    0.1915   -0.2383 C   0  0  0  0  0  0  0  0  0  0  0  0
   -3.8854    1.0773   -1.2061 C   0  0  0  0  0  0  0  0  0  0  0  0
   -5.2519    1.2045   -1.3954 C   0  0  0  0  0  0  0  0  0  0  0  0
   -5.7275    2.0643   -2.3485 O   0  0  0  0  0  0  0  0  0  0  0  0
   -6.1486    0.4518   -0.6342 C   0  0  0  0  0  0  0  0  0  0  0  0
   -7.5463    0.5610   -0.8054 C   0  0  0  0  0  0  0  0  0  0  0  0
   -8.3554   -0.2492   -0.0486 C   0  0  0  0  0  0  0  0  0  0  0  0
   -7.8302   -1.1298    0.8591 C   0  0  0  0  0  0  0  0  0  0  0  0
   -6.4665   -1.2385    1.0629 C   0  0  0  0  0  0  0  0  0  0  0  0
   -5.5974   -0.4500    0.3143 C   0  0  0  0  0  0  0  0  0  0  0  0
   -4.2651   -0.5720    0.5013 N   0  0  0  0  0  0  0  0  0  0  0  0
   -8.7941   -1.8518    1.4914 O   0  0  0  0  0  0  0  0  0  0  0  0
   -9.9794   -1.3685    0.8212 C   0  0  0  0  0  0  0  0  0  0  0  0
   -9.7112   -0.2959   -0.1042 O   0  0  0  0  0  0  0  0  0  0  0  0
   -1.4243   -1.2432    0.3072 C   0  0  0  0  0  0  0  0  0  0  0  0
   -0.0382   -1.4287    0.4127 C   0  0  0  0  0  0  0  0  0  0  0  0
    2.8691    0.3354   -0.0053 H   0  0  0  0  0  0  0  0  0  0  0  0
    2.6199   -1.3626   -0.4165 H   0  0  0  0  0  0  0  0  0  0  0  0
    2.6286   -0.8468    1.2936 H   0  0  0  0  0  0  0  0  0  0  0  0
    0.9693    1.7662   -0.1547 H   0  0  0  0  0  0  0  0  0  0  0  0
   -1.4375    2.0960   -0.3180 H   0  0  0  0  0  0  0  0  0  0  0  0
   -3.1889    1.6414   -1.8148 H   0  0  0  0  0  0  0  0  0  0  0  0
   -4.9832    2.4427   -2.8439 H   0  0  0  0  0  0  0  0  0  0  0  0
   -7.9759    1.2518   -1.5217 H   0  0  0  0  0  0  0  0  0  0  0  0
   -6.0750   -1.9403    1.7910 H   0  0  0  0  0  0  0  0  0  0  0  0
  -10.6941   -1.0156    1.5734 H   0  0  0  0  0  0  0  0  0  0  0  0
  -10.4332   -2.1993    0.2675 H   0  0  0  0  0  0  0  0  0  0  0  0
   -2.0828   -2.1000    0.4418 H   0  0  0  0  0  0  0  0  0  0  0  0
    0.3478   -2.4221    0.6319 H   0  0  0  0  0  0  0  0  0  0  0  0
  1  2  1  0  0  0  0
  1 22  1  0  0  0  0
  1 23  1  0  0  0  0
  1 24  1  0  0  0  0
  2  3  1  0  0  0  0
  2 21  2  0  0  0  0
  3  4  2  0  0  0  0
  3 25  1  0  0  0  0
  4  5  1  0  0  0  0
  4 26  1  0  0  0  0
  5  6  1  0  0  0  0
  5 20  2  0  0  0  0
  6  7  1  0  0  0  0
  6 16  2  0  0  0  0
  7  8  2  0  0  0  0
  7 27  1  0  0  0  0
  8  9  1  0  0  0  0
  8 10  1  0  0  0  0
  9 28  1  0  0  0  0
 10 11  1  0  0  0  0
 10 15  2  0  0  0  0
 11 12  2  0  0  0  0
 11 29  1  0  0  0  0
 12 13  1  0  0  0  0
 12 19  1  0  0  0  0
 13 14  2  0  0  0  0
 13 17  1  0  0  0  0
 14 15  1  0  0  0  0
 14 30  1  0  0  0  0
 15 16  1  0  0  0  0
 17 18  1  0  0  0  0
 18 19  1  0  0  0  0
 18 31  1  0  0  0  0
 18 32  1  0  0  0  0
 20 21  1  0  0  0  0
 20 33  1  0  0  0  0
 21 34  1  0  0  0  0
M  END
>  <Energy>
47.665

$$$$

 OpenBabel04232614443D

 41 43  0  0  0  0  0  0  0  0999 V2000
    0.9358   -0.1550    0.0323 C   0  0  0  0  0  0  0  0  0  0  0  0
    2.4260   -0.0443    0.0297 C   0  0  0  0  0  0  0  0  0  0  0  0
    3.2418    1.0852    0.0513 C   0  0  0  0  0  0  0  0  0  0  0  0
    2.7834    2.5127    0.0831 C   0  0  0  0  0  0  0  0  0  0  0  0
    3.5449    3.3680   -0.7601 O   0  0  0  0  0  0  0  0  0  0  0  0
    4.5930    0.6064    0.1104 C   0  0  0  0  0  0  0  0  0  0  0  0
    4.5515   -0.7774    0.0816 C   0  0  0  0  0  0  0  0  0  0  0  0
    3.2369   -1.1651    0.0231 N   0  0  0  0  0  0  0  0  0  0  0  0
    2.7313   -2.5240    0.0174 C   0  0  0  0  0  0  0  0  0  0  0  0
    5.7327   -1.5985    0.1353 C   0  0  0  0  0  0  0  0  0  0  0  0
    5.7665   -2.8209    0.0302 O   0  0  0  0  0  0  0  0  0  0  0  0
    6.9984   -0.8696    0.3571 C   0  0  0  0  0  0  0  0  0  0  0  0
    7.0901    0.4718    0.4005 C   0  0  0  0  0  0  0  0  0  0  0  0
    8.3289    1.0826    0.6439 N   0  0  0  0  0  0  0  0  0  0  0  0
    8.8807    2.1365   -0.2116 C   0  0  0  0  0  0  0  0  0  0  0  0
   10.3336    1.7737   -0.5397 C   0  0  0  0  0  0  0  0  0  0  0  0
   11.1570    1.5280    0.7273 C   0  0  0  0  0  0  0  0  0  0  0  0
   10.4736    0.5215    1.6533 C   0  0  0  0  0  0  0  0  0  0  0  0
    9.0267    0.9196    1.9240 C   0  0  0  0  0  0  0  0  0  0  0  0
    5.8491    1.3485    0.2124 C   0  0  0  0  0  0  0  0  0  0  0  0
    5.8995    2.5758    0.1999 O   0  0  0  0  0  0  0  0  0  0  0  0
    0.4517    0.8244    0.0529 H   0  0  0  0  0  0  0  0  0  0  0  0
    0.5973   -0.7038    0.9178 H   0  0  0  0  0  0  0  0  0  0  0  0
    0.5864   -0.6817   -0.8608 H   0  0  0  0  0  0  0  0  0  0  0  0
    2.8209    2.8989    1.1076 H   0  0  0  0  0  0  0  0  0  0  0  0
    1.7465    2.5932   -0.2586 H   0  0  0  0  0  0  0  0  0  0  0  0
    4.4564    3.3624   -0.4000 H   0  0  0  0  0  0  0  0  0  0  0  0
    3.5361   -3.2542    0.0299 H   0  0  0  0  0  0  0  0  0  0  0  0
    2.1348   -2.6646   -0.8866 H   0  0  0  0  0  0  0  0  0  0  0  0
    2.1160   -2.6628    0.9117 H   0  0  0  0  0  0  0  0  0  0  0  0
    7.8760   -1.4940    0.4714 H   0  0  0  0  0  0  0  0  0  0  0  0
    8.8323    3.1044    0.3012 H   0  0  0  0  0  0  0  0  0  0  0  0
    8.3182    2.2249   -1.1480 H   0  0  0  0  0  0  0  0  0  0  0  0
   10.7948    2.5694   -1.1344 H   0  0  0  0  0  0  0  0  0  0  0  0
   10.3479    0.8633   -1.1525 H   0  0  0  0  0  0  0  0  0  0  0  0
   11.2954    2.4766    1.2605 H   0  0  0  0  0  0  0  0  0  0  0  0
   12.1541    1.1616    0.4577 H   0  0  0  0  0  0  0  0  0  0  0  0
   11.0234    0.4486    2.5980 H   0  0  0  0  0  0  0  0  0  0  0  0
   10.4969   -0.4716    1.1874 H   0  0  0  0  0  0  0  0  0  0  0  0
    8.9859    1.8603    2.4864 H   0  0  0  0  0  0  0  0  0  0  0  0
    8.5464    0.1555    2.5474 H   0  0  0  0  0  0  0  0  0  0  0  0
  1  2  1  0  0  0  0
  1 22  1  0  0  0  0
  1 23  1  0  0  0  0
  1 24  1  0  0  0  0
  2  3  2  0  0  0  0
  2  8  1  0  0  0  0
  3  4  1  0  0  0  0
  3  6  1  0  0  0  0
  4  5  1  0  0  0  0
  4 25  1  0  0  0  0
  4 26  1  0  0  0  0
  5 27  1  0  0  0  0
  6  7  2  0  0  0  0
  6 20  1  0  0  0  0
  7  8  1  0  0  0  0
  7 10  1  0  0  0  0
  8  9  1  0  0  0  0
  9 28  1  0  0  0  0
  9 29  1  0  0  0  0
  9 30  1  0  0  0  0
 10 11  2  0  0  0  0
 10 12  1  0  0  0  0
 12 13  2  0  0  0  0
 12 31  1  0  0  0  0
 13 14  1  0  0  0  0
 13 20  1  0  0  0  0
 14 15  1  0  0  0  0
 14 19  1  0  0  0  0
 15 16  1  0  0  0  0
 15 32  1  0  0  0  0
 15 33  1  0  0  0  0
 16 17  1  0  0  0  0
 16 34  1  0  0  0  0
 16 35  1  0  0  0  0
 17 18  1  0  0  0  0
 17 36  1  0  0  0  0
 17 37  1  0  0  0  0
 18 19  1  0  0  0  0
 18 38  1  0  0  0  0
 18 39  1  0  0  0  0
 19 40  1  0  0  0  0
 19 41  1  0  0  0  0
 20 21  2  0  0  0  0
M  END
>  <Energy>
78.1571

$$$$

 OpenBabel04232614443D

 39 41  0  0  1  0  0  0  0  0999 V2000
    0.8710    0.1050    0.0790 C   0  0  0  0  0  0  0  0  0  0  0  0
    2.3863    0.0447   -0.1057 C   0  0  3  0  0  0  0  0  0  0  0  0
    2.9185    1.1129   -1.0840 C   0  0  0  0  0  0  0  0  0  0  0  0
    2.5940    0.7593   -2.4676 N   0  0  0  0  0  0  0  0  0  0  0  0
    1.8497    1.5320   -3.3550 C   0  0  0  0  0  0  0  0  0  0  0  0
    1.4873    1.1404   -4.4599 O   0  0  0  0  0  0  0  0  0  0  0  0
    1.4628    2.9490   -2.9344 C   0  0  0  0  0  0  0  0  0  0  0  0
    0.6757    3.0491   -1.9908 O   0  0  0  0  0  0  0  0  0  0  0  0
    2.0059    4.1216   -3.6240 C   0  0  0  0  0  0  0  0  0  0  0  0
    1.6400    5.4206   -3.3055 C   0  0  0  0  0  0  0  0  0  0  0  0
    2.3099    6.2828   -4.1246 N   0  0  0  0  0  0  0  0  0  0  0  0
    3.1228    5.5828   -4.9830 C   0  0  0  0  0  0  0  0  0  0  0  0
    3.9799    6.0597   -5.9845 C   0  0  0  0  0  0  0  0  0  0  0  0
    4.6911    5.1221   -6.7345 C   0  0  0  0  0  0  0  0  0  0  0  0
    4.5493    3.7614   -6.4887 C   0  0  0  0  0  0  0  0  0  0  0  0
    3.6929    3.3016   -5.4794 C   0  0  0  0  0  0  0  0  0  0  0  0
    2.9551    4.2222   -4.7015 C   0  0  0  0  0  0  0  0  0  0  0  0
    3.0002   -0.5931   -2.8445 C   0  0  0  0  0  0  0  0  0  0  0  0
    2.4531   -1.6251   -1.8440 C   0  0  3  0  0  0  0  0  0  0  0  0
    3.0232   -3.0089   -2.1289 C   0  0  0  0  0  0  0  0  0  0  0  0
    2.8143   -1.2767   -0.4929 O   0  0  0  0  0  0  0  0  0  0  0  0
    0.5696    1.0635    0.5126 H   0  0  0  0  0  0  0  0  0  0  0  0
    0.5374   -0.6998    0.7429 H   0  0  0  0  0  0  0  0  0  0  0  0
    0.3327   -0.0191   -0.8654 H   0  0  0  0  0  0  0  0  0  0  0  0
    2.8398    0.2293    0.8751 H   0  0  0  0  0  0  0  0  0  0  0  0
    4.0138    1.1303   -1.0290 H   0  0  0  0  0  0  0  0  0  0  0  0
    2.5631    2.1067   -0.8098 H   0  0  0  0  0  0  0  0  0  0  0  0
    0.9441    5.7926   -2.5634 H   0  0  0  0  0  0  0  0  0  0  0  0
    2.2204    7.2902   -4.1135 H   0  0  0  0  0  0  0  0  0  0  0  0
    4.0876    7.1216   -6.1814 H   0  0  0  0  0  0  0  0  0  0  0  0
    5.3588    5.4603   -7.5236 H   0  0  0  0  0  0  0  0  0  0  0  0
    5.1024    3.0430   -7.0896 H   0  0  0  0  0  0  0  0  0  0  0  0
    3.6024    2.2307   -5.3268 H   0  0  0  0  0  0  0  0  0  0  0  0
    4.0974   -0.5971   -2.8308 H   0  0  0  0  0  0  0  0  0  0  0  0
    2.6785   -0.8374   -3.8613 H   0  0  0  0  0  0  0  0  0  0  0  0
    1.3610   -1.6811   -1.9140 H   0  0  0  0  0  0  0  0  0  0  0  0
    4.1152   -3.0095   -2.0404 H   0  0  0  0  0  0  0  0  0  0  0  0
    2.7527   -3.3504   -3.1325 H   0  0  0  0  0  0  0  0  0  0  0  0
    2.6486   -3.7351   -1.3995 H   0  0  0  0  0  0  0  0  0  0  0  0
  1  2  1  0  0  0  0
  1 22  1  0  0  0  0
  1 23  1  0  0  0  0
  1 24  1  0  0  0  0
  2  3  1  0  0  0  0
  2 21  1  0  0  0  0
  2 25  1  0  0  0  0
  3  4  1  0  0  0  0
  3 26  1  0  0  0  0
  3 27  1  0  0  0  0
  4  5  1  0  0  0  0
  4 18  1  0  0  0  0
  5  6  2  0  0  0  0
  5  7  1  0  0  0  0
  7  8  2  0  0  0  0
  7  9  1  0  0  0  0
  9 10  2  0  0  0  0
  9 17  1  0  0  0  0
 10 11  1  0  0  0  0
 10 28  1  0  0  0  0
 11 12  1  0  0  0  0
 11 29  1  0  0  0  0
 12 13  1  0  0  0  0
 12 17  2  0  0  0  0
 13 14  2  0  0  0  0
 13 30  1  0  0  0  0
 14 15  1  0  0  0  0
 14 31  1  0  0  0  0
 15 16  2  0  0  0  0
 15 32  1  0  0  0  0
 16 17  1  0  0  0  0
 16 33  1  0  0  0  0
 18 19  1  0  0  0  0
 18 34  1  0  0  0  0
 18 35  1  0  0  0  0
 19 20  1  0  0  0  0
 19 21  1  0  0  0  0
 19 36  1  0  0  0  0
 20 37  1  0  0  0  0
 20 38  1  0  0  0  0
 20 39  1  0  0  0  0
M  END
>  <Energy>
129.89

$$$$

 OpenBabel04232614443D

 40 42  0  0  0  0  0  0  0  0999 V2000
    1.7827   -0.7132   -1.3497 C   0  0  0  0  0  0  0  0  0  0  0  0
    2.2530    0.3576   -0.3819 C   0  0  0  0  0  0  0  0  0  0  0  0
    3.0320    1.3293   -1.0982 O   0  0  0  0  0  0  0  0  0  0  0  0
    4.3657    1.1007   -1.1305 C   0  0  0  0  0  0  0  0  0  0  0  0
    4.9768    0.2294   -0.5284 O   0  0  0  0  0  0  0  0  0  0  0  0
    5.0187    1.9621   -2.1299 C   0  0  0  0  0  0  0  0  0  0  0  0
    4.4802    3.1811   -2.4856 C   0  0  0  0  0  0  0  0  0  0  0  0
    5.0335    3.9959   -3.4077 N   0  0  0  0  0  0  0  0  0  0  0  0
    6.1417    3.5881   -4.0452 C   0  0  0  0  0  0  0  0  0  0  0  0
    6.6680    4.4708   -4.9614 C   0  0  0  0  0  0  0  0  0  0  0  0
    7.8214    4.1943   -5.6861 C   0  0  0  0  0  0  0  0  0  0  0  0
    8.4288    2.9485   -5.5074 C   0  0  0  0  0  0  0  0  0  0  0  0
    7.9273    1.9817   -4.6247 C   0  0  0  0  0  0  0  0  0  0  0  0
    8.7463    0.8028   -4.8357 C   0  0  0  0  0  0  0  0  0  0  0  0
    8.5495   -0.5675   -4.2789 C   0  0  0  0  0  0  0  0  0  0  0  0
    9.7850    1.1503   -5.6928 C   0  0  0  0  0  0  0  0  0  0  0  0
   10.9503    0.3435   -6.1603 C   0  0  0  0  0  0  0  0  0  0  0  0
    9.5640    2.4386   -6.1059 N   0  0  0  0  0  0  0  0  0  0  0  0
   10.3731    3.1897   -7.0451 C   0  0  0  0  0  0  0  0  0  0  0  0
    6.7741    2.3356   -3.8092 C   0  0  0  0  0  0  0  0  0  0  0  0
    6.1972    1.5565   -2.7681 C   0  0  0  0  0  0  0  0  0  0  0  0
    6.8378    0.4142   -2.3526 O   0  0  0  0  0  0  0  0  0  0  0  0
    1.1867   -1.4721   -0.8344 H   0  0  0  0  0  0  0  0  0  0  0  0
    2.6316   -1.2028   -1.8374 H   0  0  0  0  0  0  0  0  0  0  0  0
    1.1740   -0.2690   -2.1455 H   0  0  0  0  0  0  0  0  0  0  0  0
    2.8131   -0.0809    0.4512 H   0  0  0  0  0  0  0  0  0  0  0  0
    1.3911    0.8810    0.0442 H   0  0  0  0  0  0  0  0  0  0  0  0
    3.5760    3.5681   -2.0259 H   0  0  0  0  0  0  0  0  0  0  0  0
    6.1719    5.4282   -5.1112 H   0  0  0  0  0  0  0  0  0  0  0  0
    8.2144    4.9288   -6.3827 H   0  0  0  0  0  0  0  0  0  0  0  0
    7.4905   -0.8401   -4.2643 H   0  0  0  0  0  0  0  0  0  0  0  0
    8.9751   -0.6418   -3.2746 H   0  0  0  0  0  0  0  0  0  0  0  0
    9.0347   -1.3256   -4.9019 H   0  0  0  0  0  0  0  0  0  0  0  0
   11.0074   -0.6244   -5.6558 H   0  0  0  0  0  0  0  0  0  0  0  0
   11.8882    0.8677   -5.9501 H   0  0  0  0  0  0  0  0  0  0  0  0
   10.8826    0.1569   -7.2370 H   0  0  0  0  0  0  0  0  0  0  0  0
   11.2045    2.5863   -7.4117 H   0  0  0  0  0  0  0  0  0  0  0  0
   10.7627    4.0720   -6.5306 H   0  0  0  0  0  0  0  0  0  0  0  0
    9.7412    3.4807   -7.8884 H   0  0  0  0  0  0  0  0  0  0  0  0
    6.4226    0.0743   -1.5295 H   0  0  0  0  0  0  0  0  0  0  0  0
  1  2  1  0  0  0  0
  1 23  1  0  0  0  0
  1 24  1  0  0  0  0
  1 25  1  0  0  0  0
  2  3  1  0  0  0  0
  2 26  1  0  0  0  0
  2 27  1  0  0  0  0
  3  4  1  0  0  0  0
  4  5  2  0  0  0  0
  4  6  1  0  0  0  0
  6  7  1  0  0  0  0
  6 21  2  0  0  0  0
  7  8  2  0  0  0  0
  7 28  1  0  0  0  0
  8  9  1  0  0  0  0
  9 10  1  0  0  0  0
  9 20  2  0  0  0  0
 10 11  2  0  0  0  0
 10 29  1  0  0  0  0
 11 12  1  0  0  0  0
 11 30  1  0  0  0  0
 12 13  2  0  0  0  0
 12 18  1  0  0  0  0
 13 14  1  0  0  0  0
 13 20  1  0  0  0  0
 14 15  1  0  0  0  0
 14 16  2  0  0  0  0
 15 31  1  0  0  0  0
 15 32  1  0  0  0  0
 15 33  1  0  0  0  0
 16 17  1  0  0  0  0
 16 18  1  0  0  0  0
 17 34  1  0  0  0  0
 17 35  1  0  0  0  0
 17 36  1  0  0  0  0
 18 19  1  0  0  0  0
 19 37  1  0  0  0  0
 19 38  1  0  0  0  0
 19 39  1  0  0  0  0
 20 21  1  0  0  0  0
 21 22  1  0  0  0  0
 22 40  1  0  0  0  0
M  END
>  <Energy>
58.3412

$$$$

 OpenBabel04232614443D

 27 29  0  0  0  0  0  0  0  0999 V2000
    1.0958    0.1921   -0.0695 O   0  0  0  0  0  0  0  0  0  0  0  0
    2.4473    0.0891   -0.0699 C   0  0  0  0  0  0  0  0  0  0  0  0
    3.0862    1.2694   -0.0354 N   0  0  0  0  0  0  0  0  0  0  0  0
    4.4345    1.2032   -0.0266 C   0  0  0  0  0  0  0  0  0  0  0  0
    5.1458    2.3886    0.0097 C   0  0  0  0  0  0  0  0  0  0  0  0
    6.5392    2.3877    0.0164 C   0  0  0  0  0  0  0  0  0  0  0  0
    7.4286    4.0688    0.0573 Br  0  0  0  0  0  0  0  0  0  0  0  0
    7.2614    1.1867   -0.0317 C   0  0  0  0  0  0  0  0  0  0  0  0
    6.5397   -0.0273   -0.0301 C   0  0  0  0  0  0  0  0  0  0  0  0
    5.1342   -0.0367   -0.0500 C   0  0  0  0  0  0  0  0  0  0  0  0
    4.4565   -1.2082   -0.0914 N   0  0  0  0  0  0  0  0  0  0  0  0
    3.1158   -1.1195   -0.0969 C   0  0  0  0  0  0  0  0  0  0  0  0
    2.4865   -2.3192   -0.1280 O   0  0  0  0  0  0  0  0  0  0  0  0
    7.2819   -1.3484   -0.0718 C   0  0  0  0  0  0  0  0  0  0  0  0
    8.7520   -1.2147    0.3089 C   0  0  0  0  0  0  0  0  0  0  0  0
    9.3473   -0.0089   -0.3947 C   0  0  0  0  0  0  0  0  0  0  0  0
    8.6653    1.1900    0.0627 N   0  0  0  0  0  0  0  0  0  0  0  0
    0.9903    1.1579   -0.0367 H   0  0  0  0  0  0  0  0  0  0  0  0
    4.5984    3.3274    0.0328 H   0  0  0  0  0  0  0  0  0  0  0  0
    3.2515   -2.9211   -0.1301 H   0  0  0  0  0  0  0  0  0  0  0  0
    7.2063   -1.7483   -1.0910 H   0  0  0  0  0  0  0  0  0  0  0  0
    6.8161   -2.0711    0.6082 H   0  0  0  0  0  0  0  0  0  0  0  0
    9.2943   -2.1279    0.0406 H   0  0  0  0  0  0  0  0  0  0  0  0
    8.8411   -1.0898    1.3960 H   0  0  0  0  0  0  0  0  0  0  0  0
    9.2653   -0.1023   -1.4842 H   0  0  0  0  0  0  0  0  0  0  0  0
   10.4126    0.0740   -0.1524 H   0  0  0  0  0  0  0  0  0  0  0  0
    9.0778    2.0647   -0.2592 H   0  0  0  0  0  0  0  0  0  0  0  0
  1  2  1  0  0  0  0
  1 18  1  0  0  0  0
  2  3  1  0  0  0  0
  2 12  2  0  0  0  0
  3  4  2  0  0  0  0
  4  5  1  0  0  0  0
  4 10  1  0  0  0  0
  5  6  2  0  0  0  0
  5 19  1  0  0  0  0
  6  7  1  0  0  0  0
  6  8  1  0  0  0  0
  8  9  2  0  0  0  0
  8 17  1  0  0  0  0
  9 10  1  0  0  0  0
  9 14  1  0  0  0  0
 10 11  2  0  0  0  0
 11 12  1  0  0  0  0
 12 13  1  0  0  0  0
 13 20  1  0  0  0  0
 14 15  1  0  0  0  0
 14 21  1  0  0  0  0
 14 22  1  0  0  0  0
 15 16  1  0  0  0  0
 15 23  1  0  0  0  0
 15 24  1  0  0  0  0
 16 17  1  0  0  0  0
 16 25  1  0  0  0  0
 16 26  1  0  0  0  0
 17 27  1  0  0  0  0
M  END
>  <Energy>
42.9536

$$$$

 OpenBabel04232614443D

 42 45  0  0  0  0  0  0  0  0999 V2000
    1.1247    0.1946    0.0890 C   0  0  0  0  0  0  0  0  0  0  0  0
    2.5063   -0.1444    0.0854 O   0  0  0  0  0  0  0  0  0  0  0  0
    3.0940   -0.2378   -1.1511 C   0  0  0  0  0  0  0  0  0  0  0  0
    2.6889    0.5417   -2.2512 C   0  0  0  0  0  0  0  0  0  0  0  0
    3.3289    0.4482   -3.4859 C   0  0  0  0  0  0  0  0  0  0  0  0
    4.3987   -0.4215   -3.6724 C   0  0  0  0  0  0  0  0  0  0  0  0
    4.8050   -1.1815   -2.5723 C   0  0  0  0  0  0  0  0  0  0  0  0
    5.8114   -2.1071   -2.4879 N   0  0  0  0  0  0  0  0  0  0  0  0
    5.9466   -2.5898   -1.2121 C   0  0  0  0  0  0  0  0  0  0  0  0
    6.8502   -3.4963   -0.6497 C   0  0  0  0  0  0  0  0  0  0  0  0
    7.9487   -4.0244   -1.2950 N   0  0  0  0  0  0  0  0  0  0  0  0
    8.3674   -5.3870   -0.9770 C   0  0  0  0  0  0  0  0  0  0  0  0
    9.8762   -5.4351   -0.7311 C   0  0  0  0  0  0  0  0  0  0  0  0
   10.6628   -4.7894   -1.8809 C   0  0  0  0  0  0  0  0  0  0  0  0
   12.1590   -4.7633   -1.5770 C   0  0  0  0  0  0  0  0  0  0  0  0
   10.1512   -3.3685   -2.1302 C   0  0  0  0  0  0  0  0  0  0  0  0
    8.6456   -3.3442   -2.3742 C   0  0  0  0  0  0  0  0  0  0  0  0
    6.5955   -3.8446    0.6340 N   0  0  0  0  0  0  0  0  0  0  0  0
    5.5685   -3.2635    1.2836 C   0  0  0  0  0  0  0  0  0  0  0  0
    4.7032   -2.3556    0.8236 N   0  0  0  0  0  0  0  0  0  0  0  0
    4.9114   -2.0314   -0.4718 C   0  0  0  0  0  0  0  0  0  0  0  0
    4.1961   -1.1134   -1.3169 C   0  0  0  0  0  0  0  0  0  0  0  0
    0.7509    0.0763    1.1103 H   0  0  0  0  0  0  0  0  0  0  0  0
    0.5491   -0.4739   -0.5608 H   0  0  0  0  0  0  0  0  0  0  0  0
    0.9713    1.2427   -0.1913 H   0  0  0  0  0  0  0  0  0  0  0  0
    1.8750    1.2553   -2.1621 H   0  0  0  0  0  0  0  0  0  0  0  0
    2.9936    1.0684   -4.3139 H   0  0  0  0  0  0  0  0  0  0  0  0
    4.9005   -0.4927   -4.6323 H   0  0  0  0  0  0  0  0  0  0  0  0
    6.3808   -2.3962   -3.2673 H   0  0  0  0  0  0  0  0  0  0  0  0
    8.1144   -6.0367   -1.8247 H   0  0  0  0  0  0  0  0  0  0  0  0
    7.8537   -5.8068   -0.1048 H   0  0  0  0  0  0  0  0  0  0  0  0
   10.1909   -6.4781   -0.6040 H   0  0  0  0  0  0  0  0  0  0  0  0
   10.1028   -4.9154    0.2092 H   0  0  0  0  0  0  0  0  0  0  0  0
   10.5071   -5.3834   -2.7911 H   0  0  0  0  0  0  0  0  0  0  0  0
   12.3696   -4.1893   -0.6680 H   0  0  0  0  0  0  0  0  0  0  0  0
   12.7130   -4.3015   -2.4015 H   0  0  0  0  0  0  0  0  0  0  0  0
   12.5462   -5.7771   -1.4367 H   0  0  0  0  0  0  0  0  0  0  0  0
   10.6642   -2.9260   -2.9924 H   0  0  0  0  0  0  0  0  0  0  0  0
   10.3818   -2.7360   -1.2626 H   0  0  0  0  0  0  0  0  0  0  0  0
    8.4053   -3.8278   -3.3286 H   0  0  0  0  0  0  0  0  0  0  0  0
    8.3667   -2.2886   -2.4540 H   0  0  0  0  0  0  0  0  0  0  0  0
    5.4326   -3.5706    2.3173 H   0  0  0  0  0  0  0  0  0  0  0  0
  1  2  1  0  0  0  0
  1 23  1  0  0  0  0
  1 24  1  0  0  0  0
  1 25  1  0  0  0  0
  2  3  1  0  0  0  0
  3  4  1  0  0  0  0
  3 22  2  0  0  0  0
  4  5  2  0  0  0  0
  4 26  1  0  0  0  0
  5  6  1  0  0  0  0
  5 27  1  0  0  0  0
  6  7  2  0  0  0  0
  6 28  1  0  0  0  0
  7  8  1  0  0  0  0
  7 22  1  0  0  0  0
  8  9  1  0  0  0  0
  8 29  1  0  0  0  0
  9 10  1  0  0  0  0
  9 21  2  0  0  0  0
 10 11  1  0  0  0  0
 10 18  2  0  0  0  0
 11 12  1  0  0  0  0
 11 17  1  0  0  0  0
 12 13  1  0  0  0  0
 12 30  1  0  0  0  0
 12 31  1  0  0  0  0
 13 14  1  0  0  0  0
 13 32  1  0  0  0  0
 13 33  1  0  0  0  0
 14 15  1  0  0  0  0
 14 16  1  0  0  0  0
 14 34  1  0  0  0  0
 15 35  1  0  0  0  0
 15 36  1  0  0  0  0
 15 37  1  0  0  0  0
 16 17  1  0  0  0  0
 16 38  1  0  0  0  0
 16 39  1  0  0  0  0
 17 40  1  0  0  0  0
 17 41  1  0  0  0  0
 18 19  1  0  0  0  0
 19 20  2  0  0  0  0
 19 42  1  0  0  0  0
 20 21  1  0  0  0  0
 21 22  1  0  0  0  0
M  END
>  <Energy>
-4.01069

$$$$

 OpenBabel04232614443D

 35 38  0  0  0  0  0  0  0  0999 V2000
    0.9884    0.0212   -0.0896 C   0  0  0  0  0  0  0  0  0  0  0  0
    2.5207    0.0119   -0.1339 C   0  0  0  0  0  0  0  0  0  0  0  0
    3.0315    0.0219   -1.5788 C   0  0  0  0  0  0  0  0  0  0  0  0
    3.0762   -1.1768    0.6360 C   0  0  0  0  0  0  0  0  0  0  0  0
    2.9115   -2.5347    0.4018 C   0  0  0  0  0  0  0  0  0  0  0  0
    3.5280   -3.4379    1.2725 C   0  0  0  0  0  0  0  0  0  0  0  0
    4.2945   -2.9818    2.3558 C   0  0  0  0  0  0  0  0  0  0  0  0
    4.4580   -1.6148    2.5863 C   0  0  0  0  0  0  0  0  0  0  0  0
    3.8447   -0.7258    1.7208 C   0  0  0  0  0  0  0  0  0  0  0  0
    3.8518    0.6831    1.7320 N   0  0  0  0  0  0  0  0  0  0  0  0
    3.1016    1.1780    0.6732 C   0  0  0  0  0  0  0  0  0  0  0  0
    2.9704    2.4960    0.4838 C   0  0  0  0  0  0  0  0  0  0  0  0
    3.6215    3.3952    1.4025 C   0  0  0  0  0  0  0  0  0  0  0  0
    3.4166    4.7590    1.1129 O   0  0  0  0  0  0  0  0  0  0  0  0
    3.9742    5.7217    1.9057 C   0  0  0  0  0  0  0  0  0  0  0  0
    3.8214    6.9190    1.6934 O   0  0  0  0  0  0  0  0  0  0  0  0
    4.7837    5.2746    3.0496 C   0  0  0  0  0  0  0  0  0  0  0  0
    4.9600    3.9730    3.2974 C   0  0  0  0  0  0  0  0  0  0  0  0
    5.7101    3.5243    4.3567 O   0  0  0  0  0  0  0  0  0  0  0  0
    4.3578    2.9696    2.4458 C   0  0  0  0  0  0  0  0  0  0  0  0
    4.5111    1.4797    2.6660 C   0  0  0  0  0  0  0  0  0  0  0  0
    5.1699    1.0389    3.6031 O   0  0  0  0  0  0  0  0  0  0  0  0
    0.5691   -0.8518   -0.6027 H   0  0  0  0  0  0  0  0  0  0  0  0
    0.5814    0.9163   -0.5740 H   0  0  0  0  0  0  0  0  0  0  0  0
    0.6142    0.0036    0.9415 H   0  0  0  0  0  0  0  0  0  0  0  0
    2.6777   -0.8550   -2.1331 H   0  0  0  0  0  0  0  0  0  0  0  0
    4.1276    0.0130   -1.6206 H   0  0  0  0  0  0  0  0  0  0  0  0
    2.6868    0.9126   -2.1167 H   0  0  0  0  0  0  0  0  0  0  0  0
    2.3194   -2.8965   -0.4323 H   0  0  0  0  0  0  0  0  0  0  0  0
    3.4145   -4.5077    1.1136 H   0  0  0  0  0  0  0  0  0  0  0  0
    4.7673   -3.6963    3.0258 H   0  0  0  0  0  0  0  0  0  0  0  0
    5.0538   -1.2800    3.4285 H   0  0  0  0  0  0  0  0  0  0  0  0
    2.3889    2.9050   -0.3354 H   0  0  0  0  0  0  0  0  0  0  0  0
    5.2149    6.0560    3.6600 H   0  0  0  0  0  0  0  0  0  0  0  0
    6.0687    4.2678    4.8662 H   0  0  0  0  0  0  0  0  0  0  0  0
  1  2  1  0  0  0  0
  1 23  1  0  0  0  0
  1 24  1  0  0  0  0
  1 25  1  0  0  0  0
  2  3  1  0  0  0  0
  2  4  1  0  0  0  0
  2 11  1  0  0  0  0
  3 26  1  0  0  0  0
  3 27  1  0  0  0  0
  3 28  1  0  0  0  0
  4  5  1  0  0  0  0
  4  9  2  0  0  0  0
  5  6  2  0  0  0  0
  5 29  1  0  0  0  0
  6  7  1  0  0  0  0
  6 30  1  0  0  0  0
  7  8  2  0  0  0  0
  7 31  1  0  0  0  0
  8  9  1  0  0  0  0
  8 32  1  0  0  0  0
  9 10  1  0  0  0  0
 10 11  1  0  0  0  0
 10 21  1  0  0  0  0
 11 12  2  0  0  0  0
 12 13  1  0  0  0  0
 12 33  1  0  0  0  0
 13 14  1  0  0  0  0
 13 20  2  0  0  0  0
 14 15  1  0  0  0  0
 15 16  2  0  0  0  0
 15 17  1  0  0  0  0
 17 18  2  0  0  0  0
 17 34  1  0  0  0  0
 18 19  1  0  0  0  0
 18 20  1  0  0  0  0
 19 35  1  0  0  0  0
 20 21  1  0  0  0  0
 21 22  2  0  0  0  0
M  END
>  <Energy>
71.4281

$$$$

 OpenBabel04232614443D

 38 41  0  0  0  0  0  0  0  0999 V2000
    0.9626   -0.5865   -0.0723 O   0  0  0  0  0  0  0  0  0  0  0  0
    2.0880   -0.0907   -0.0261 C   0  0  0  0  0  0  0  0  0  0  0  0
    2.6487    0.6380   -1.0558 N   0  0  0  0  0  0  0  0  0  0  0  0
    2.0224    1.0601   -2.2494 C   0  0  0  0  0  0  0  0  0  0  0  0
    0.6379    0.9398   -2.4796 C   0  0  0  0  0  0  0  0  0  0  0  0
    0.0702    1.3220   -3.6978 C   0  0  0  0  0  0  0  0  0  0  0  0
    0.9058    1.8331   -4.6640 C   0  0  0  0  0  0  0  0  0  0  0  0
    2.2524    1.9870   -4.4399 C   0  0  0  0  0  0  0  0  0  0  0  0
    2.8382    1.6225   -3.2428 C   0  0  0  0  0  0  0  0  0  0  0  0
    2.8989    2.5111   -5.5170 O   0  0  0  0  0  0  0  0  0  0  0  0
    1.8165    2.5844   -6.4703 C   0  0  0  0  0  0  0  0  0  0  0  0
    0.5366    2.2259   -5.9117 O   0  0  0  0  0  0  0  0  0  0  0  0
    2.9429   -0.3411    1.0578 N   0  0  0  0  0  0  0  0  0  0  0  0
    2.5872   -1.4664    1.9258 C   0  0  0  0  0  0  0  0  0  0  0  0
    3.8014   -2.3330    2.2003 C   0  0  0  0  0  0  0  0  0  0  0  0
    4.8657   -1.5178    2.9144 C   0  0  0  0  0  0  0  0  0  0  0  0
    5.0108   -0.1198    2.3636 C   0  0  0  0  0  0  0  0  0  0  0  0
    6.1115    0.6421    2.7923 C   0  0  0  0  0  0  0  0  0  0  0  0
    6.2657    1.9622    2.3801 C   0  0  0  0  0  0  0  0  0  0  0  0
    5.3061    2.5433    1.5607 C   0  0  0  0  0  0  0  0  0  0  0  0
    4.2050    1.7968    1.1321 C   0  0  0  0  0  0  0  0  0  0  0  0
    4.0565    0.4491    1.4930 C   0  0  0  0  0  0  0  0  0  0  0  0
    3.6567    0.7060   -1.0273 H   0  0  0  0  0  0  0  0  0  0  0  0
   -0.0314    0.5395   -1.7242 H   0  0  0  0  0  0  0  0  0  0  0  0
   -0.9926    1.2091   -3.8807 H   0  0  0  0  0  0  0  0  0  0  0  0
    3.9043    1.7606   -3.1030 H   0  0  0  0  0  0  0  0  0  0  0  0
    2.0382    1.9041   -7.3015 H   0  0  0  0  0  0  0  0  0  0  0  0
    1.7550    3.6065   -6.8600 H   0  0  0  0  0  0  0  0  0  0  0  0
    1.8139   -2.0893    1.4636 H   0  0  0  0  0  0  0  0  0  0  0  0
    2.1622   -1.0591    2.8522 H   0  0  0  0  0  0  0  0  0  0  0  0
    4.2001   -2.7143    1.2516 H   0  0  0  0  0  0  0  0  0  0  0  0
    3.5247   -3.2015    2.8084 H   0  0  0  0  0  0  0  0  0  0  0  0
    5.8229   -2.0485    2.8487 H   0  0  0  0  0  0  0  0  0  0  0  0
    4.6035   -1.4369    3.9769 H   0  0  0  0  0  0  0  0  0  0  0  0
    6.8493    0.2070    3.4636 H   0  0  0  0  0  0  0  0  0  0  0  0
    7.1193    2.5435    2.7201 H   0  0  0  0  0  0  0  0  0  0  0  0
    5.4001    3.5866    1.2695 H   0  0  0  0  0  0  0  0  0  0  0  0
    3.4441    2.3170    0.5559 H   0  0  0  0  0  0  0  0  0  0  0  0
  1  2  2  0  0  0  0
  2  3  1  0  0  0  0
  2 13  1  0  0  0  0
  3  4  1  0  0  0  0
  3 23  1  0  0  0  0
  4  5  1  0  0  0  0
  4  9  2  0  0  0  0
  5  6  2  0  0  0  0
  5 24  1  0  0  0  0
  6  7  1  0  0  0  0
  6 25  1  0  0  0  0
  7  8  2  0  0  0  0
  7 12  1  0  0  0  0
  8  9  1  0  0  0  0
  8 10  1  0  0  0  0
  9 26  1  0  0  0  0
 10 11  1  0  0  0  0
 11 12  1  0  0  0  0
 11 27  1  0  0  0  0
 11 28  1  0  0  0  0
 13 14  1  0  0  0  0
 13 22  1  0  0  0  0
 14 15  1  0  0  0  0
 14 29  1  0  0  0  0
 14 30  1  0  0  0  0
 15 16  1  0  0  0  0
 15 31  1  0  0  0  0
 15 32  1  0  0  0  0
 16 17  1  0  0  0  0
 16 33  1  0  0  0  0
 16 34  1  0  0  0  0
 17 18  1  0  0  0  0
 17 22  2  0  0  0  0
 18 19  2  0  0  0  0
 18 35  1  0  0  0  0
 19 20  1  0  0  0  0
 19 36  1  0  0  0  0
 20 21  2  0  0  0  0
 20 37  1  0  0  0  0
 21 22  1  0  0  0  0
 21 38  1  0  0  0  0
M  END
>  <Energy>
-11.8293

$$$$

 OpenBabel04232614443D

 37 39  0  0  0  0  0  0  0  0999 V2000
    0.9311    2.4055    0.1108 C   0  0  0  0  0  0  0  0  0  0  0  0
    2.3438    2.0652    0.4727 C   0  0  0  0  0  0  0  0  0  0  0  0
    2.8906    2.4427    1.4999 O   0  0  0  0  0  0  0  0  0  0  0  0
    2.9221    1.3407   -0.5630 O   0  0  0  0  0  0  0  0  0  0  0  0
    4.3359    1.2701   -0.5835 C   0  0  0  0  0  0  0  0  0  0  0  0
    4.9173    0.0307   -0.8641 C   0  0  0  0  0  0  0  0  0  0  0  0
    6.3125   -0.1244   -0.9838 C   0  0  0  0  0  0  0  0  0  0  0  0
    6.8301   -1.5025   -1.2738 C   0  0  0  0  0  0  0  0  0  0  0  0
    7.1388    1.0109   -0.8354 C   0  0  0  0  0  0  0  0  0  0  0  0
    8.5724    0.9901   -0.8823 O   0  0  0  0  0  0  0  0  0  0  0  0
    9.6486    0.1050   -1.0528 C   0  0  0  0  0  0  0  0  0  0  0  0
   10.9342    0.8712   -0.9118 C   0  0  0  0  0  0  0  0  0  0  0  0
    9.5908   -1.0871   -1.2953 O   0  0  0  0  0  0  0  0  0  0  0  0
    6.5590    2.2875   -0.6009 C   0  0  0  0  0  0  0  0  0  0  0  0
    5.1733    2.3841   -0.4788 C   0  0  0  0  0  0  0  0  0  0  0  0
    4.8787    3.7057   -0.2433 N   0  0  0  0  0  0  0  0  0  0  0  0
    6.0105    4.4751   -0.2242 C   0  0  0  0  0  0  0  0  0  0  0  0
    6.1520    5.8523   -0.0199 C   0  0  0  0  0  0  0  0  0  0  0  0
    7.4448    6.3790   -0.0447 C   0  0  0  0  0  0  0  0  0  0  0  0
    8.5451    5.5565   -0.2642 C   0  0  0  0  0  0  0  0  0  0  0  0
    8.3781    4.1814   -0.4658 C   0  0  0  0  0  0  0  0  0  0  0  0
    7.0861    3.6189   -0.4433 C   0  0  0  0  0  0  0  0  0  0  0  0
    0.5320    3.1010    0.8558 H   0  0  0  0  0  0  0  0  0  0  0  0
    0.3146    1.5060    0.0919 H   0  0  0  0  0  0  0  0  0  0  0  0
    0.9169    2.9117   -0.8587 H   0  0  0  0  0  0  0  0  0  0  0  0
    4.2641   -0.8306   -0.9877 H   0  0  0  0  0  0  0  0  0  0  0  0
    6.0143   -2.2262   -1.3848 H   0  0  0  0  0  0  0  0  0  0  0  0
    7.4520   -1.8591   -0.4484 H   0  0  0  0  0  0  0  0  0  0  0  0
    7.3785   -1.5100   -2.2199 H   0  0  0  0  0  0  0  0  0  0  0  0
   10.7562    1.8740   -0.5178 H   0  0  0  0  0  0  0  0  0  0  0  0
   11.4171    0.9569   -1.8879 H   0  0  0  0  0  0  0  0  0  0  0  0
   11.5865    0.3525   -0.2044 H   0  0  0  0  0  0  0  0  0  0  0  0
    3.9536    4.0595   -0.0524 H   0  0  0  0  0  0  0  0  0  0  0  0
    5.2926    6.4913    0.1535 H   0  0  0  0  0  0  0  0  0  0  0  0
    7.5902    7.4449    0.1114 H   0  0  0  0  0  0  0  0  0  0  0  0
    9.5443    5.9843   -0.2795 H   0  0  0  0  0  0  0  0  0  0  0  0
    9.2475    3.5582   -0.6379 H   0  0  0  0  0  0  0  0  0  0  0  0
  1  2  1  0  0  0  0
  1 23  1  0  0  0  0
  1 24  1  0  0  0  0
  1 25  1  0  0  0  0
  2  3  2  0  0  0  0
  2  4  1  0  0  0  0
  4  5  1  0  0  0  0
  5  6  1  0  0  0  0
  5 15  2  0  0  0  0
  6  7  2  0  0  0  0
  6 26  1  0  0  0  0
  7  8  1  0  0  0  0
  7  9  1  0  0  0  0
  8 27  1  0  0  0  0
  8 28  1  0  0  0  0
  8 29  1  0  0  0  0
  9 10  1  0  0  0  0
  9 14  2  0  0  0  0
 10 11  1  0  0  0  0
 11 12  1  0  0  0  0
 11 13  2  0  0  0  0
 12 30  1  0  0  0  0
 12 31  1  0  0  0  0
 12 32  1  0  0  0  0
 14 15  1  0  0  0  0
 14 22  1  0  0  0  0
 15 16  1  0  0  0  0
 16 17  1  0  0  0  0
 16 33  1  0  0  0  0
 17 18  1  0  0  0  0
 17 22  2  0  0  0  0
 18 19  2  0  0  0  0
 18 34  1  0  0  0  0
 19 20  1  0  0  0  0
 19 35  1  0  0  0  0
 20 21  2  0  0  0  0
 20 36  1  0  0  0  0
 21 22  1  0  0  0  0
 21 37  1  0  0  0  0
M  END
>  <Energy>
64.356

$$$$

 OpenBabel04232614443D

 30 33  0  0  0  0  0  0  0  0999 V2000
    2.9918   -0.5774   -1.8488 O   0  0  0  0  0  0  0  0  0  0  0  0
    3.6242   -0.3289   -0.8534 C   0  0  0  0  0  0  0  0  0  0  0  0
    4.0371    1.0311   -0.2787 C   0  0  0  0  0  0  0  0  0  0  0  0
    4.1715    2.2980   -0.9556 C   0  0  0  0  0  0  0  0  0  0  0  0
    4.3520    2.4513   -2.3176 C   0  0  0  0  0  0  0  0  0  0  0  0
    4.3603    1.5438   -3.2850 O   0  0  0  0  0  0  0  0  0  0  0  0
    4.6477    3.7672   -2.5602 N   0  0  0  0  0  0  0  0  0  0  0  0
    4.7478    4.4632   -1.3787 C   0  0  0  0  0  0  0  0  0  0  0  0
    5.1737    5.7761   -1.1381 C   0  0  0  0  0  0  0  0  0  0  0  0
    5.1813    6.2178    0.1874 C   0  0  0  0  0  0  0  0  0  0  0  0
    4.7464    5.3868    1.2110 C   0  0  0  0  0  0  0  0  0  0  0  0
    4.7506    5.8445    2.4706 F   0  0  0  0  0  0  0  0  0  0  0  0
    4.3328    4.0793    0.9640 C   0  0  0  0  0  0  0  0  0  0  0  0
    4.3648    3.5903   -0.3594 C   0  0  0  0  0  0  0  0  0  0  0  0
    4.4763    0.9105    0.9499 N   0  0  0  0  0  0  0  0  0  0  0  0
    4.5479   -0.4681    1.2025 C   0  0  0  0  0  0  0  0  0  0  0  0
    5.1476   -1.0513    2.3017 C   0  0  0  0  0  0  0  0  0  0  0  0
    5.2899   -2.4431    2.3181 C   0  0  0  0  0  0  0  0  0  0  0  0
    4.8182   -3.2317    1.2492 C   0  0  0  0  0  0  0  0  0  0  0  0
    4.1957   -2.6418    0.1472 C   0  0  0  0  0  0  0  0  0  0  0  0
    4.0932   -1.2663    0.1566 C   0  0  0  0  0  0  0  0  0  0  0  0
    4.5185    1.9551   -4.1504 H   0  0  0  0  0  0  0  0  0  0  0  0
    4.8623    4.1609   -3.4638 H   0  0  0  0  0  0  0  0  0  0  0  0
    5.5171    6.4204   -1.9408 H   0  0  0  0  0  0  0  0  0  0  0  0
    5.5330    7.2161    0.4302 H   0  0  0  0  0  0  0  0  0  0  0  0
    4.0282    3.4467    1.7919 H   0  0  0  0  0  0  0  0  0  0  0  0
    5.5380   -0.4349    3.1051 H   0  0  0  0  0  0  0  0  0  0  0  0
    5.7964   -2.9177    3.1566 H   0  0  0  0  0  0  0  0  0  0  0  0
    4.9645   -4.3095    1.2763 H   0  0  0  0  0  0  0  0  0  0  0  0
    3.8472   -3.2270   -0.6965 H   0  0  0  0  0  0  0  0  0  0  0  0
  1  2  2  0  0  0  0
  2  3  1  0  0  0  0
  2 21  1  0  0  0  0
  3  4  1  0  0  0  0
  3 15  2  0  0  0  0
  4  5  2  0  0  0  0
  4 14  1  0  0  0  0
  5  6  1  0  0  0  0
  5  7  1  0  0  0  0
  6 22  1  0  0  0  0
  7  8  1  0  0  0  0
  7 23  1  0  0  0  0
  8  9  1  0  0  0  0
  8 14  2  0  0  0  0
  9 10  2  0  0  0  0
  9 24  1  0  0  0  0
 10 11  1  0  0  0  0
 10 25  1  0  0  0  0
 11 12  1  0  0  0  0
 11 13  2  0  0  0  0
 13 14  1  0  0  0  0
 13 26  1  0  0  0  0
 15 16  1  0  0  0  0
 16 17  1  0  0  0  0
 16 21  2  0  0  0  0
 17 18  2  0  0  0  0
 17 27  1  0  0  0  0
 18 19  1  0  0  0  0
 18 28  1  0  0  0  0
 19 20  2  0  0  0  0
 19 29  1  0  0  0  0
 20 21  1  0  0  0  0
 20 30  1  0  0  0  0
M  END
>  <Energy>
89.8038

$$$$

 OpenBabel04232614443D

 39 41  0  0  1  0  0  0  0  0999 V2000
    0.9504   -0.0789    0.0853 C   0  0  0  0  0  0  0  0  0  0  0  0
    2.4305   -0.0549    0.2851 C   0  0  0  0  0  0  0  0  0  0  0  0
    3.1672    1.0618    0.2993 C   0  0  0  0  0  0  0  0  0  0  0  0
    4.5893    0.9517    0.3939 C   0  0  0  0  0  0  0  0  0  0  0  0
    5.2046   -0.2313    0.5470 C   0  0  0  0  0  0  0  0  0  0  0  0
    4.3844   -1.4674    0.6259 C   0  0  0  0  0  0  0  0  0  0  0  0
    4.8980   -2.5687    0.8073 O   0  0  0  0  0  0  0  0  0  0  0  0
    3.0305   -1.3284    0.4461 O   0  0  0  0  0  0  0  0  0  0  0  0
    6.6512   -0.2590    0.6213 C   0  0  0  0  0  0  0  0  0  0  0  0
    7.3625    0.8024    0.1871 C   0  0  0  0  0  0  0  0  0  0  0  0
    8.8970    0.8726    0.2143 C   0  0  0  0  0  0  0  0  0  0  0  0
    9.5214   -0.4451   -0.2982 C   0  0  0  0  0  0  0  0  0  0  0  0
    9.3974    1.1142    1.6531 C   0  0  0  0  0  0  0  0  0  0  0  0
    9.4224    2.0093   -0.6973 C   0  0  0  0  0  0  0  0  0  0  0  0
    8.7752    3.3730   -0.4590 C   0  0  0  0  0  0  0  0  0  0  0  0
    7.3143    3.3119   -0.0229 C   0  0  0  0  0  0  0  0  0  0  0  0
    6.5920    2.0053   -0.3738 C   0  0  3  0  0  0  0  0  0  0  0  0
    6.3702    1.8724   -1.8952 C   0  0  0  0  0  0  0  0  0  0  0  0
    5.2658    2.1394    0.2168 O   0  0  0  0  0  0  0  0  0  0  0  0
    0.5301    0.9310    0.0304 H   0  0  0  0  0  0  0  0  0  0  0  0
    0.4614   -0.6056    0.9095 H   0  0  0  0  0  0  0  0  0  0  0  0
    0.7083   -0.5933   -0.8508 H   0  0  0  0  0  0  0  0  0  0  0  0
    2.7271    2.0468    0.1818 H   0  0  0  0  0  0  0  0  0  0  0  0
    7.1153   -1.1513    1.0318 H   0  0  0  0  0  0  0  0  0  0  0  0
    9.3245   -1.2853    0.3768 H   0  0  0  0  0  0  0  0  0  0  0  0
   10.6107   -0.3561   -0.3881 H   0  0  0  0  0  0  0  0  0  0  0  0
    9.1290   -0.7103   -1.2874 H   0  0  0  0  0  0  0  0  0  0  0  0
    9.1143    0.2920    2.3224 H   0  0  0  0  0  0  0  0  0  0  0  0
    8.9946    2.0391    2.0811 H   0  0  0  0  0  0  0  0  0  0  0  0
   10.4906    1.1905    1.6786 H   0  0  0  0  0  0  0  0  0  0  0  0
    9.2776    1.7317   -1.7490 H   0  0  0  0  0  0  0  0  0  0  0  0
   10.5101    2.1163   -0.5883 H   0  0  0  0  0  0  0  0  0  0  0  0
    8.8598    3.9662   -1.3780 H   0  0  0  0  0  0  0  0  0  0  0  0
    9.3440    3.9221    0.3017 H   0  0  0  0  0  0  0  0  0  0  0  0
    6.7714    4.1711   -0.4393 H   0  0  0  0  0  0  0  0  0  0  0  0
    7.2632    3.4655    1.0648 H   0  0  0  0  0  0  0  0  0  0  0  0
    7.2955    1.7515   -2.4623 H   0  0  0  0  0  0  0  0  0  0  0  0
    5.8431    2.7514   -2.2827 H   0  0  0  0  0  0  0  0  0  0  0  0
    5.7350    1.0122   -2.1308 H   0  0  0  0  0  0  0  0  0  0  0  0
  1  2  1  0  0  0  0
  1 20  1  0  0  0  0
  1 21  1  0  0  0  0
  1 22  1  0  0  0  0
  2  3  2  0  0  0  0
  2  8  1  0  0  0  0
  3  4  1  0  0  0  0
  3 23  1  0  0  0  0
  4  5  2  0  0  0  0
  4 19  1  0  0  0  0
  5  6  1  0  0  0  0
  5  9  1  0  0  0  0
  6  7  2  0  0  0  0
  6  8  1  0  0  0  0
  9 10  2  0  0  0  0
  9 24  1  0  0  0  0
 10 11  1  0  0  0  0
 10 17  1  0  0  0  0
 11 12  1  0  0  0  0
 11 13  1  0  0  0  0
 11 14  1  0  0  0  0
 12 25  1  0  0  0  0
 12 26  1  0  0  0  0
 12 27  1  0  0  0  0
 13 28  1  0  0  0  0
 13 29  1  0  0  0  0
 13 30  1  0  0  0  0
 14 15  1  0  0  0  0
 14 31  1  0  0  0  0
 14 32  1  0  0  0  0
 15 16  1  0  0  0  0
 15 33  1  0  0  0  0
 15 34  1  0  0  0  0
 16 17  1  0  0  0  0
 16 35  1  0  0  0  0
 16 36  1  0  0  0  0
 17 18  1  0  0  0  0
 17 19  1  0  0  0  0
 18 37  1  0  0  0  0
 18 38  1  0  0  0  0
 18 39  1  0  0  0  0
M  END
>  <Energy>
75.6594

$$$$

 OpenBabel04232614443D

 38 41  0  0  0  0  0  0  0  0999 V2000
    0.8926   -1.1579   -0.6817 C   0  0  0  0  0  0  0  0  0  0  0  0
    1.6819   -0.2441   -1.5698 C   0  0  0  0  0  0  0  0  0  0  0  0
    2.5280   -0.7391   -2.4986 C   0  0  0  0  0  0  0  0  0  0  0  0
    3.3156    0.0847   -3.5002 C   0  0  0  0  0  0  0  0  0  0  0  0
    2.7126    0.0405   -4.9140 C   0  0  0  0  0  0  0  0  0  0  0  0
    4.7523   -0.4668   -3.5527 C   0  0  0  0  0  0  0  0  0  0  0  0
    3.3821    1.4981   -3.0885 N   0  0  0  0  0  0  0  0  0  0  0  0
    2.1370    1.9755   -2.5832 C   0  0  0  0  0  0  0  0  0  0  0  0
    1.7068    3.2463   -2.9515 C   0  0  0  0  0  0  0  0  0  0  0  0
    0.5313    3.7743   -2.4129 C   0  0  0  0  0  0  0  0  0  0  0  0
   -0.0988    3.1030   -1.3452 C   0  0  0  0  0  0  0  0  0  0  0  0
    0.4013    1.8627   -0.9308 C   0  0  0  0  0  0  0  0  0  0  0  0
   -0.2792    1.5469    0.2233 N   0  0  0  0  0  0  0  0  0  0  0  0
   -1.2498    2.4741    0.5077 C   0  0  0  0  0  0  0  0  0  0  0  0
   -2.1288    2.5663    1.5937 C   0  0  0  0  0  0  0  0  0  0  0  0
   -3.0885    3.5828    1.5591 C   0  0  0  0  0  0  0  0  0  0  0  0
   -3.1634    4.4651    0.4846 C   0  0  0  0  0  0  0  0  0  0  0  0
   -2.2313    4.3988   -0.5573 C   0  0  0  0  0  0  0  0  0  0  0  0
   -1.2381    3.3985   -0.5316 C   0  0  0  0  0  0  0  0  0  0  0  0
    1.4203    1.2048   -1.6425 C   0  0  0  0  0  0  0  0  0  0  0  0
    1.0766   -2.2118   -0.9180 H   0  0  0  0  0  0  0  0  0  0  0  0
   -0.1821   -1.0000   -0.8072 H   0  0  0  0  0  0  0  0  0  0  0  0
    1.1664   -1.0086    0.3669 H   0  0  0  0  0  0  0  0  0  0  0  0
    2.6576   -1.8165   -2.5742 H   0  0  0  0  0  0  0  0  0  0  0  0
    2.6371   -0.9833   -5.2897 H   0  0  0  0  0  0  0  0  0  0  0  0
    3.3336    0.6137   -5.6147 H   0  0  0  0  0  0  0  0  0  0  0  0
    1.7109    0.4834   -4.9446 H   0  0  0  0  0  0  0  0  0  0  0  0
    4.7910   -1.4173   -4.0986 H   0  0  0  0  0  0  0  0  0  0  0  0
    5.1501   -0.6508   -2.5468 H   0  0  0  0  0  0  0  0  0  0  0  0
    5.4353    0.2329   -4.0484 H   0  0  0  0  0  0  0  0  0  0  0  0
    4.0291    1.5764   -2.3076 H   0  0  0  0  0  0  0  0  0  0  0  0
    2.2544    3.8025   -3.7062 H   0  0  0  0  0  0  0  0  0  0  0  0
    0.1526    4.7290   -2.7642 H   0  0  0  0  0  0  0  0  0  0  0  0
   -0.0506    0.7707    0.8277 H   0  0  0  0  0  0  0  0  0  0  0  0
   -2.0764    1.8776    2.4297 H   0  0  0  0  0  0  0  0  0  0  0  0
   -3.7945    3.6786    2.3816 H   0  0  0  0  0  0  0  0  0  0  0  0
   -3.9425    5.2232    0.4588 H   0  0  0  0  0  0  0  0  0  0  0  0
   -2.2828    5.1004   -1.3837 H   0  0  0  0  0  0  0  0  0  0  0  0
  1  2  1  0  0  0  0
  1 21  1  0  0  0  0
  1 22  1  0  0  0  0
  1 23  1  0  0  0  0
  2  3  2  0  0  0  0
  2 20  1  0  0  0  0
  3  4  1  0  0  0  0
  3 24  1  0  0  0  0
  4  5  1  0  0  0  0
  4  6  1  0  0  0  0
  4  7  1  0  0  0  0
  5 25  1  0  0  0  0
  5 26  1  0  0  0  0
  5 27  1  0  0  0  0
  6 28  1  0  0  0  0
  6 29  1  0  0  0  0
  6 30  1  0  0  0  0
  7  8  1  0  0  0  0
  7 31  1  0  0  0  0
  8  9  1  0  0  0  0
  8 20  2  0  0  0  0
  9 10  2  0  0  0  0
  9 32  1  0  0  0  0
 10 11  1  0  0  0  0
 10 33  1  0  0  0  0
 11 12  2  0  0  0  0
 11 19  1  0  0  0  0
 12 13  1  0  0  0  0
 12 20  1  0  0  0  0
 13 14  1  0  0  0  0
 13 34  1  0  0  0  0
 14 15  1  0  0  0  0
 14 19  2  0  0  0  0
 15 16  2  0  0  0  0
 15 35  1  0  0  0  0
 16 17  1  0  0  0  0
 16 36  1  0  0  0  0
 17 18  2  0  0  0  0
 17 37  1  0  0  0  0
 18 19  1  0  0  0  0
 18 38  1  0  0  0  0
M  END
>  <Energy>
56.7268

$$$$

 OpenBabel04232614443D

 35 37  0  0  0  0  0  0  0  0999 V2000
    0.9470   -0.1137    0.0488 C   0  0  0  0  0  0  0  0  0  0  0  0
    2.4471   -0.0713    0.0465 C   0  0  0  0  0  0  0  0  0  0  0  0
    3.1986   -1.2496    0.0406 C   0  0  0  0  0  0  0  0  0  0  0  0
    4.5965   -1.2222    0.0358 C   0  0  0  0  0  0  0  0  0  0  0  0
    5.2235    0.0290    0.0450 C   0  0  0  0  0  0  0  0  0  0  0  0
    6.5654    0.3443    0.0343 N   0  0  0  0  0  0  0  0  0  0  0  0
    6.7443    1.7046    0.0406 C   0  0  0  0  0  0  0  0  0  0  0  0
    7.9495    2.2655    0.0146 O   0  0  0  0  0  0  0  0  0  0  0  0
    5.4884    2.2727    0.0800 C   0  0  0  0  0  0  0  0  0  0  0  0
    5.2935    3.6608    0.0804 N   0  0  0  0  0  0  0  0  0  0  0  0
    4.2505    4.0394    0.6500 N   0  0  0  0  0  0  0  0  0  0  0  0
    4.1140    5.4488    0.6386 C   0  0  0  0  0  0  0  0  0  0  0  0
    4.6379    6.2522   -0.3916 C   0  0  0  0  0  0  0  0  0  0  0  0
    4.4768    7.6387   -0.3845 C   0  0  0  0  0  0  0  0  0  0  0  0
    3.7724    8.2479    0.6472 C   0  0  0  0  0  0  0  0  0  0  0  0
    3.2298    7.4718    1.6708 C   0  0  0  0  0  0  0  0  0  0  0  0
    3.3926    6.0756    1.6761 C   0  0  0  0  0  0  0  0  0  0  0  0
    2.8087    5.2663    2.8013 C   0  0  0  0  0  0  0  0  0  0  0  0
    4.5135    1.2322    0.0620 C   0  0  0  0  0  0  0  0  0  0  0  0
    3.1026    1.1728    0.0519 C   0  0  0  0  0  0  0  0  0  0  0  0
    0.5735   -1.1432    0.0519 H   0  0  0  0  0  0  0  0  0  0  0  0
    0.5542    0.3836   -0.8437 H   0  0  0  0  0  0  0  0  0  0  0  0
    0.5581    0.3865    0.9415 H   0  0  0  0  0  0  0  0  0  0  0  0
    2.6961   -2.2151    0.0377 H   0  0  0  0  0  0  0  0  0  0  0  0
    5.1676   -2.1455    0.0259 H   0  0  0  0  0  0  0  0  0  0  0  0
    7.3022   -0.3439    0.0120 H   0  0  0  0  0  0  0  0  0  0  0  0
    8.6394    1.5826    0.0057 H   0  0  0  0  0  0  0  0  0  0  0  0
    5.1844    5.7934   -1.2122 H   0  0  0  0  0  0  0  0  0  0  0  0
    4.9032    8.2370   -1.1853 H   0  0  0  0  0  0  0  0  0  0  0  0
    3.6445    9.3271    0.6558 H   0  0  0  0  0  0  0  0  0  0  0  0
    2.6787    7.9639    2.4695 H   0  0  0  0  0  0  0  0  0  0  0  0
    2.2497    5.8978    3.5007 H   0  0  0  0  0  0  0  0  0  0  0  0
    3.6061    4.7722    3.3659 H   0  0  0  0  0  0  0  0  0  0  0  0
    2.1150    4.5139    2.4126 H   0  0  0  0  0  0  0  0  0  0  0  0
    2.5248    2.0934    0.0512 H   0  0  0  0  0  0  0  0  0  0  0  0
  1  2  1  0  0  0  0
  1 21  1  0  0  0  0
  1 22  1  0  0  0  0
  1 23  1  0  0  0  0
  2  3  1  0  0  0  0
  2 20  2  0  0  0  0
  3  4  2  0  0  0  0
  3 24  1  0  0  0  0
  4  5  1  0  0  0  0
  4 25  1  0  0  0  0
  5  6  1  0  0  0  0
  5 19  2  0  0  0  0
  6  7  1  0  0  0  0
  6 26  1  0  0  0  0
  7  8  1  0  0  0  0
  7  9  2  0  0  0  0
  8 27  1  0  0  0  0
  9 10  1  0  0  0  0
  9 19  1  0  0  0  0
 10 11  2  3  0  0  0
 11 12  1  0  0  0  0
 12 13  1  0  0  0  0
 12 17  2  0  0  0  0
 13 14  2  0  0  0  0
 13 28  1  0  0  0  0
 14 15  1  0  0  0  0
 14 29  1  0  0  0  0
 15 16  2  0  0  0  0
 15 30  1  0  0  0  0
 16 17  1  0  0  0  0
 16 31  1  0  0  0  0
 17 18  1  0  0  0  0
 18 32  1  0  0  0  0
 18 33  1  0  0  0  0
 18 34  1  0  0  0  0
 19 20  1  0  0  0  0
 20 35  1  0  0  0  0
M  END
>  <Energy>
62.1551

$$$$

 OpenBabel04232614443D

 27 28  0  0  0  0  0  0  0  0999 V2000
    0.8255    0.1578    0.1560 O   0  0  0  0  0  0  0  0  0  0  0  0
    2.0069    0.1850   -0.1686 C   0  0  0  0  0  0  0  0  0  0  0  0
    2.6461   -0.7667   -0.9545 N   0  0  0  0  0  0  0  0  0  0  0  0
    2.2152   -1.9527   -1.5220 C   0  0  0  0  0  0  0  0  0  0  0  0
    0.8765   -2.8418   -1.0827 S   0  0  0  0  0  0  0  0  0  0  0  0
    3.0497   -2.4579   -2.4978 N   0  0  0  0  0  0  0  0  0  0  0  0
    4.0126   -1.7682   -3.2749 C   0  0  0  0  0  0  0  0  0  0  0  0
    3.8755   -0.4016   -3.5599 C   0  0  0  0  0  0  0  0  0  0  0  0
    4.8732    0.2879   -4.2481 C   0  0  0  0  0  0  0  0  0  0  0  0
    6.0075   -0.3885   -4.6856 C   0  0  0  0  0  0  0  0  0  0  0  0
    6.1236   -1.7634   -4.4734 C   0  0  0  0  0  0  0  0  0  0  0  0
    5.1201   -2.4562   -3.7901 C   0  0  0  0  0  0  0  0  0  0  0  0
    5.3175   -4.1542   -3.5375 Cl  0  0  0  0  0  0  0  0  0  0  0  0
    2.8850    1.2952    0.1557 C   0  0  0  0  0  0  0  0  0  0  0  0
    2.6278    2.5217    0.7374 C   0  0  0  0  0  0  0  0  0  0  0  0
    3.8553    3.2261    0.7667 C   0  0  0  0  0  0  0  0  0  0  0  0
    4.7926    2.3883    0.2111 C   0  0  0  0  0  0  0  0  0  0  0  0
    4.2169    1.2186   -0.1730 O   0  0  0  0  0  0  0  0  0  0  0  0
    3.6264   -0.5623   -1.1026 H   0  0  0  0  0  0  0  0  0  0  0  0
    2.9689   -3.4596   -2.6600 H   0  0  0  0  0  0  0  0  0  0  0  0
    2.9778    0.1453   -3.2796 H   0  0  0  0  0  0  0  0  0  0  0  0
    4.7584    1.3520   -4.4436 H   0  0  0  0  0  0  0  0  0  0  0  0
    6.7941    0.1526   -5.2059 H   0  0  0  0  0  0  0  0  0  0  0  0
    7.0056   -2.2868   -4.8334 H   0  0  0  0  0  0  0  0  0  0  0  0
    1.6586    2.8604    1.0774 H   0  0  0  0  0  0  0  0  0  0  0  0
    4.0334    4.2236    1.1449 H   0  0  0  0  0  0  0  0  0  0  0  0
    5.8545    2.4754    0.0226 H   0  0  0  0  0  0  0  0  0  0  0  0
  1  2  2  0  0  0  0
  2  3  1  0  0  0  0
  2 14  1  0  0  0  0
  3  4  1  0  0  0  0
  3 19  1  0  0  0  0
  4  5  2  0  0  0  0
  4  6  1  0  0  0  0
  6  7  1  0  0  0  0
  6 20  1  0  0  0  0
  7  8  1  0  0  0  0
  7 12  2  0  0  0  0
  8  9  2  0  0  0  0
  8 21  1  0  0  0  0
  9 10  1  0  0  0  0
  9 22  1  0  0  0  0
 10 11  2  0  0  0  0
 10 23  1  0  0  0  0
 11 12  1  0  0  0  0
 11 24  1  0  0  0  0
 12 13  1  0  0  0  0
 14 15  2  0  0  0  0
 14 18  1  0  0  0  0
 15 16  1  0  0  0  0
 15 25  1  0  0  0  0
 16 17  2  0  0  0  0
 16 26  1  0  0  0  0
 17 18  1  0  0  0  0
 17 27  1  0  0  0  0
M  END
>  <Energy>
-9.6354

$$$$

 OpenBabel04232614443D

 35 37  0  0  0  0  0  0  0  0999 V2000
    1.9583   -0.2417    2.6460 C   0  0  0  0  0  0  0  0  0  0  0  0
    0.5844   -0.1599    2.0503 C   0  0  0  0  0  0  0  0  0  0  0  0
    0.0899    1.0423    1.5324 C   0  0  0  0  0  0  0  0  0  0  0  0
   -1.2011    1.1119    0.9947 C   0  0  0  0  0  0  0  0  0  0  0  0
   -2.0197   -0.0232    0.9779 C   0  0  0  0  0  0  0  0  0  0  0  0
   -3.4123   -0.0406    0.4457 C   0  0  0  0  0  0  0  0  0  0  0  0
   -3.9541   -1.1218    0.2138 O   0  0  0  0  0  0  0  0  0  0  0  0
   -4.1281    1.2408    0.2025 C   0  0  0  0  0  0  0  0  0  0  0  0
   -5.3808    1.2410   -0.2892 C   0  0  0  0  0  0  0  0  0  0  0  0
   -6.1482    0.1242   -0.5611 N   0  0  0  0  0  0  0  0  0  0  0  0
   -7.2391    0.1801   -1.4341 C   0  0  0  0  0  0  0  0  0  0  0  0
   -7.9021   -0.9830   -1.8288 C   0  0  0  0  0  0  0  0  0  0  0  0
   -8.9911   -0.9060   -2.6995 C   0  0  0  0  0  0  0  0  0  0  0  0
   -9.4354    0.3357   -3.1589 C   0  0  0  0  0  0  0  0  0  0  0  0
   -8.8097    1.5086   -2.7304 C   0  0  0  0  0  0  0  0  0  0  0  0
   -7.7210    1.4267   -1.8630 C   0  0  0  0  0  0  0  0  0  0  0  0
   -7.0895    2.5978   -1.4146 N   0  0  0  0  0  0  0  0  0  0  0  0
   -5.9602    2.6012   -0.6273 C   0  0  0  0  0  0  0  0  0  0  0  0
   -5.4405    3.6552   -0.2661 O   0  0  0  0  0  0  0  0  0  0  0  0
   -1.5103   -1.2326    1.4741 C   0  0  0  0  0  0  0  0  0  0  0  0
   -0.2219   -1.3005    2.0067 C   0  0  0  0  0  0  0  0  0  0  0  0
    2.4633    0.7294    2.6271 H   0  0  0  0  0  0  0  0  0  0  0  0
    2.5719   -0.9533    2.0844 H   0  0  0  0  0  0  0  0  0  0  0  0
    1.8949   -0.5660    3.6899 H   0  0  0  0  0  0  0  0  0  0  0  0
    0.7076    1.9385    1.5429 H   0  0  0  0  0  0  0  0  0  0  0  0
   -1.5243    2.0645    0.5885 H   0  0  0  0  0  0  0  0  0  0  0  0
   -3.6181    2.1751    0.3908 H   0  0  0  0  0  0  0  0  0  0  0  0
   -5.6636   -0.7673   -0.4453 H   0  0  0  0  0  0  0  0  0  0  0  0
   -7.5692   -1.9524   -1.4697 H   0  0  0  0  0  0  0  0  0  0  0  0
   -9.4903   -1.8158   -3.0212 H   0  0  0  0  0  0  0  0  0  0  0  0
  -10.2742    0.3884   -3.8473 H   0  0  0  0  0  0  0  0  0  0  0  0
   -9.1707    2.4685   -3.0854 H   0  0  0  0  0  0  0  0  0  0  0  0
   -7.4478    3.5018   -1.6780 H   0  0  0  0  0  0  0  0  0  0  0  0
   -2.1194   -2.1350    1.4530 H   0  0  0  0  0  0  0  0  0  0  0  0
    0.1450   -2.2499    2.3907 H   0  0  0  0  0  0  0  0  0  0  0  0
  1  2  1  0  0  0  0
  1 22  1  0  0  0  0
  1 23  1  0  0  0  0
  1 24  1  0  0  0  0
  2  3  1  0  0  0  0
  2 21  2  0  0  0  0
  3  4  2  0  0  0  0
  3 25  1  0  0  0  0
  4  5  1  0  0  0  0
  4 26  1  0  0  0  0
  5  6  1  0  0  0  0
  5 20  2  0  0  0  0
  6  7  2  0  0  0  0
  6  8  1  0  0  0  0
  8  9  2  0  0  0  0
  8 27  1  0  0  0  0
  9 10  1  0  0  0  0
  9 18  1  0  0  0  0
 10 11  1  0  0  0  0
 10 28  1  0  0  0  0
 11 12  1  0  0  0  0
 11 16  2  0  0  0  0
 12 13  2  0  0  0  0
 12 29  1  0  0  0  0
 13 14  1  0  0  0  0
 13 30  1  0  0  0  0
 14 15  2  0  0  0  0
 14 31  1  0  0  0  0
 15 16  1  0  0  0  0
 15 32  1  0  0  0  0
 16 17  1  0  0  0  0
 17 18  1  0  0  0  0
 17 33  1  0  0  0  0
 18 19  2  0  0  0  0
 20 21  1  0  0  0  0
 20 34  1  0  0  0  0
 21 35  1  0  0  0  0
M  END
>  <Energy>
68.3199

$$$$

 OpenBabel04232614443D

 39 41  0  0  1  0  0  0  0  0999 V2000
    1.1759   -0.3362   -2.4608 C   0  0  0  0  0  0  0  0  0  0  0  0
    1.2443   -1.1047   -1.2709 O   0  0  0  0  0  0  0  0  0  0  0  0
    2.5427   -1.1877   -0.6671 C   0  0  1  0  0  0  0  0  0  0  0  0
    2.9975    0.1797   -0.1083 C   0  0  0  0  0  0  0  0  0  0  0  0
    3.4053    0.3251    1.3908 C   0  0  1  0  0  0  0  0  0  0  0  0
    3.8069    1.8103    1.5740 C   0  0  0  0  0  0  0  0  0  0  0  0
    2.3263   -0.0447    2.3843 C   0  0  0  0  0  0  0  0  0  0  0  0
    1.9679    0.5907    3.5194 C   0  0  0  0  0  0  0  0  0  0  0  0
    0.5979    0.1494    3.9397 C   0  0  0  0  0  0  0  0  0  0  0  0
    0.2020   -0.7370    2.7955 C   0  0  0  0  0  0  0  0  0  0  0  0
   -1.1816   -0.7017    2.2472 C   0  0  0  0  0  0  0  0  0  0  0  0
    1.3040   -1.0235    2.0739 C   0  0  0  0  0  0  0  0  0  0  0  0
    1.6304   -2.3580    1.4823 C   0  0  0  0  0  0  0  0  0  0  0  0
    2.4545   -2.3531    0.2483 C   0  0  0  0  0  0  0  0  0  0  0  0
    3.0932   -3.4154   -0.2609 C   0  0  0  0  0  0  0  0  0  0  0  0
    3.1781   -4.8256    0.1795 C   0  0  0  0  0  0  0  0  0  0  0  0
    3.7440   -2.9482   -1.4842 C   0  0  0  0  0  0  0  0  0  0  0  0
    4.4301   -3.6372   -2.2342 O   0  0  0  0  0  0  0  0  0  0  0  0
    3.5071   -1.6307   -1.6411 O   0  0  0  0  0  0  0  0  0  0  0  0
    2.1335   -0.2351   -2.9747 H   0  0  0  0  0  0  0  0  0  0  0  0
    0.7886    0.6618   -2.2297 H   0  0  0  0  0  0  0  0  0  0  0  0
    0.4732   -0.8317   -3.1399 H   0  0  0  0  0  0  0  0  0  0  0  0
    2.2172    0.9249   -0.3151 H   0  0  0  0  0  0  0  0  0  0  0  0
    3.8672    0.5068   -0.7017 H   0  0  0  0  0  0  0  0  0  0  0  0
    4.2838   -0.2992    1.5814 H   0  0  0  0  0  0  0  0  0  0  0  0
    2.9443    2.4729    1.4116 H   0  0  0  0  0  0  0  0  0  0  0  0
    4.5808    2.1040    0.8582 H   0  0  0  0  0  0  0  0  0  0  0  0
    4.1968    2.0102    2.5770 H   0  0  0  0  0  0  0  0  0  0  0  0
    2.4847    1.4006    4.0030 H   0  0  0  0  0  0  0  0  0  0  0  0
   -0.0791    0.9943    4.0726 H   0  0  0  0  0  0  0  0  0  0  0  0
    0.6454   -0.4314    4.8709 H   0  0  0  0  0  0  0  0  0  0  0  0
   -1.4919   -1.6385    1.7842 H   0  0  0  0  0  0  0  0  0  0  0  0
   -1.2254    0.0931    1.4873 H   0  0  0  0  0  0  0  0  0  0  0  0
   -1.9030   -0.4257    3.0223 H   0  0  0  0  0  0  0  0  0  0  0  0
    0.7271   -2.9578    1.3378 H   0  0  0  0  0  0  0  0  0  0  0  0
    2.2248   -2.8741    2.2561 H   0  0  0  0  0  0  0  0  0  0  0  0
    2.7179   -4.9828    1.1550 H   0  0  0  0  0  0  0  0  0  0  0  0
    4.2239   -5.1490    0.2440 H   0  0  0  0  0  0  0  0  0  0  0  0
    2.6675   -5.4771   -0.5396 H   0  0  0  0  0  0  0  0  0  0  0  0
  1  2  1  0  0  0  0
  1 20  1  0  0  0  0
  1 21  1  0  0  0  0
  1 22  1  0  0  0  0
  3  2  1  6  0  0  0
  3  4  1  0  0  0  0
  3 14  1  0  0  0  0
  3 19  1  0  0  0  0
  4  5  1  0  0  0  0
  4 23  1  0  0  0  0
  4 24  1  0  0  0  0
  5  7  1  0  0  0  0
  5  6  1  0  0  0  0
  5 25  1  1  0  0  0
  6 26  1  0  0  0  0
  6 27  1  0  0  0  0
  6 28  1  0  0  0  0
  7  8  2  0  0  0  0
  7 12  1  0  0  0  0
  8  9  1  0  0  0  0
  8 29  1  0  0  0  0
  9 10  1  0  0  0  0
  9 30  1  0  0  0  0
  9 31  1  0  0  0  0
 10 11  1  0  0  0  0
 10 12  2  3  0  0  0
 11 32  1  0  0  0  0
 11 33  1  0  0  0  0
 11 34  1  0  0  0  0
 12 13  1  0  0  0  0
 13 14  1  0  0  0  0
 13 35  1  0  0  0  0
 13 36  1  0  0  0  0
 14 15  2  0  0  0  0
 15 16  1  0  0  0  0
 15 17  1  0  0  0  0
 16 37  1  0  0  0  0
 16 38  1  0  0  0  0
 16 39  1  0  0  0  0
 17 18  2  0  0  0  0
 17 19  1  0  0  0  0
M  END
>  <Energy>
29.46

$$$$

 OpenBabel04232614443D

 31 33  0  0  1  0  0  0  0  0999 V2000
    1.0928   -0.1170    0.2223 C   0  0  0  0  0  0  0  0  0  0  0  0
    2.6150   -0.2887    0.1278 C   0  0  3  0  0  0  0  0  0  0  0  0
    3.1264    0.1437   -1.2559 C   0  0  0  0  0  0  0  0  0  0  0  0
    2.7466   -0.8435   -2.3439 C   0  0  0  0  0  0  0  0  0  0  0  0
    2.5297   -0.4758   -3.4965 O   0  0  0  0  0  0  0  0  0  0  0  0
    2.7296   -2.2691   -1.9546 C   0  0  0  0  0  0  0  0  0  0  0  0
    2.5338   -3.5637   -3.0381 S   0  0  0  0  0  0  0  0  0  0  0  0
    2.6925   -4.6585   -1.6605 C   0  0  0  0  0  0  0  0  0  0  0  0
    2.6089   -5.9255   -1.8819 N   0  0  0  0  0  0  0  0  0  0  0  0
    2.7115   -6.9382   -0.9186 C   0  0  0  0  0  0  0  0  0  0  0  0
    2.3213   -6.8388    0.4192 C   0  0  0  0  0  0  0  0  0  0  0  0
    2.3737   -7.9572    1.2624 C   0  0  0  0  0  0  0  0  0  0  0  0
    2.8001   -9.1905    0.7721 C   0  0  0  0  0  0  0  0  0  0  0  0
    3.1865   -9.3061   -0.5579 C   0  0  0  0  0  0  0  0  0  0  0  0
    3.1431   -8.1850   -1.3893 C   0  0  0  0  0  0  0  0  0  0  0  0
    2.9013   -4.0541   -0.4352 O   0  0  0  0  0  0  0  0  0  0  0  0
    2.8942   -2.6663   -0.6929 C   0  0  0  0  0  0  0  0  0  0  0  0
    3.0490   -1.7330    0.4674 C   0  0  0  0  0  0  0  0  0  0  0  0
    0.7963    0.8953   -0.0738 H   0  0  0  0  0  0  0  0  0  0  0  0
    0.7541   -0.2709    1.2523 H   0  0  0  0  0  0  0  0  0  0  0  0
    0.5552   -0.8246   -0.4166 H   0  0  0  0  0  0  0  0  0  0  0  0
    3.0561    0.3845    0.8746 H   0  0  0  0  0  0  0  0  0  0  0  0
    4.2200    0.2210   -1.2494 H   0  0  0  0  0  0  0  0  0  0  0  0
    2.7216    1.1271   -1.5188 H   0  0  0  0  0  0  0  0  0  0  0  0
    1.9402   -5.9088    0.8266 H   0  0  0  0  0  0  0  0  0  0  0  0
    2.0582   -7.8693    2.2989 H   0  0  0  0  0  0  0  0  0  0  0  0
    2.8161  -10.0625    1.4217 H   0  0  0  0  0  0  0  0  0  0  0  0
    3.5045  -10.2652   -0.9567 H   0  0  0  0  0  0  0  0  0  0  0  0
    3.4238   -8.2883   -2.4357 H   0  0  0  0  0  0  0  0  0  0  0  0
    4.1041   -1.7300    0.7674 H   0  0  0  0  0  0  0  0  0  0  0  0
    2.4727   -2.0999    1.3253 H   0  0  0  0  0  0  0  0  0  0  0  0
  1  2  1  0  0  0  0
  1 19  1  0  0  0  0
  1 20  1  0  0  0  0
  1 21  1  0  0  0  0
  2  3  1  0  0  0  0
  2 18  1  0  0  0  0
  2 22  1  0  0  0  0
  3  4  1  0  0  0  0
  3 23  1  0  0  0  0
  3 24  1  0  0  0  0
  4  5  2  0  0  0  0
  4  6  1  0  0  0  0
  6  7  1  0  0  0  0
  6 17  2  0  0  0  0
  7  8  1  0  0  0  0
  8  9  2  0  0  0  0
  8 16  1  0  0  0  0
  9 10  1  0  0  0  0
 10 11  1  0  0  0  0
 10 15  2  0  0  0  0
 11 12  2  0  0  0  0
 11 25  1  0  0  0  0
 12 13  1  0  0  0  0
 12 26  1  0  0  0  0
 13 14  2  0  0  0  0
 13 27  1  0  0  0  0
 14 15  1  0  0  0  0
 14 28  1  0  0  0  0
 15 29  1  0  0  0  0
 16 17  1  0  0  0  0
 17 18  1  0  0  0  0
 18 30  1  0  0  0  0
 18 31  1  0  0  0  0
M  END
>  <Energy>
32.0979

$$$$

 OpenBabel04232614443D

 41 43  0  0  0  0  0  0  0  0999 V2000
    6.0595    2.0271   -1.9423 C   0  0  0  0  0  0  0  0  0  0  0  0
    5.1048    0.9739   -1.4587 C   0  0  0  0  0  0  0  0  0  0  0  0
    5.5911   -0.2196   -0.9178 C   0  0  0  0  0  0  0  0  0  0  0  0
    4.7122   -1.2265   -0.4993 C   0  0  0  0  0  0  0  0  0  0  0  0
    5.2090   -2.4588   -0.0333 N   0  0  0  0  0  0  0  0  0  0  0  0
    4.5684   -3.7084   -0.1099 C   0  0  0  0  0  0  0  0  0  0  0  0
    3.8366   -4.0651   -1.2464 C   0  0  0  0  0  0  0  0  0  0  0  0
    3.0641   -5.2269   -1.2790 C   0  0  0  0  0  0  0  0  0  0  0  0
    3.0142   -6.0961   -0.1817 C   0  0  0  0  0  0  0  0  0  0  0  0
    2.1649   -7.3783   -0.1953 C   0  0  0  0  0  0  0  0  0  0  0  0
    1.3647   -7.5721   -1.5049 C   0  0  0  0  0  0  0  0  0  0  0  0
    3.0866   -8.6044   -0.0332 C   0  0  0  0  0  0  0  0  0  0  0  0
    1.1418   -7.3536    0.9598 C   0  0  0  0  0  0  0  0  0  0  0  0
    3.7904   -5.7540    0.9431 C   0  0  0  0  0  0  0  0  0  0  0  0
    4.5550   -4.5779    0.9794 C   0  0  0  0  0  0  0  0  0  0  0  0
    3.3596   -0.9007   -0.6440 C   0  0  0  0  0  0  0  0  0  0  0  0
    2.2008   -1.5631   -0.3295 N   0  0  0  0  0  0  0  0  0  0  0  0
    1.0722   -0.9058   -0.6679 N   0  0  0  0  0  0  0  0  0  0  0  0
    1.5348    0.2344   -1.1930 C   0  0  0  0  0  0  0  0  0  0  0  0
    2.9429    0.3013   -1.1889 C   0  0  0  0  0  0  0  0  0  0  0  0
    3.7931    1.2650   -1.6108 N   0  0  0  0  0  0  0  0  0  0  0  0
    7.1027    1.7357   -1.7884 H   0  0  0  0  0  0  0  0  0  0  0  0
    5.8815    2.9622   -1.4025 H   0  0  0  0  0  0  0  0  0  0  0  0
    5.9070    2.2004   -3.0124 H   0  0  0  0  0  0  0  0  0  0  0  0
    6.6627   -0.3891   -0.8573 H   0  0  0  0  0  0  0  0  0  0  0  0
    5.8961   -2.3703    0.7076 H   0  0  0  0  0  0  0  0  0  0  0  0
    3.8467   -3.4214   -2.1241 H   0  0  0  0  0  0  0  0  0  0  0  0
    2.5010   -5.4165   -2.1883 H   0  0  0  0  0  0  0  0  0  0  0  0
    2.0275   -7.6454   -2.3752 H   0  0  0  0  0  0  0  0  0  0  0  0
    0.6671   -6.7435   -1.6763 H   0  0  0  0  0  0  0  0  0  0  0  0
    0.7705   -8.4928   -1.4755 H   0  0  0  0  0  0  0  0  0  0  0  0
    3.8385   -8.6393   -0.8302 H   0  0  0  0  0  0  0  0  0  0  0  0
    2.5132   -9.5379   -0.0739 H   0  0  0  0  0  0  0  0  0  0  0  0
    3.6210   -8.5962    0.9234 H   0  0  0  0  0  0  0  0  0  0  0  0
    0.4845   -6.4788    0.8885 H   0  0  0  0  0  0  0  0  0  0  0  0
    1.6254   -7.3238    1.9426 H   0  0  0  0  0  0  0  0  0  0  0  0
    0.5074   -8.2475    0.9417 H   0  0  0  0  0  0  0  0  0  0  0  0
    3.8017   -6.3982    1.8203 H   0  0  0  0  0  0  0  0  0  0  0  0
    5.1146   -4.3430    1.8811 H   0  0  0  0  0  0  0  0  0  0  0  0
    2.1164   -2.4766    0.1008 H   0  0  0  0  0  0  0  0  0  0  0  0
    0.8361    0.9721   -1.5608 H   0  0  0  0  0  0  0  0  0  0  0  0
  1  2  1  0  0  0  0
  1 22  1  0  0  0  0
  1 23  1  0  0  0  0
  1 24  1  0  0  0  0
  2  3  1  0  0  0  0
  2 21  2  0  0  0  0
  3  4  2  0  0  0  0
  3 25  1  0  0  0  0
  4  5  1  0  0  0  0
  4 16  1  0  0  0  0
  5  6  1  0  0  0  0
  5 26  1  0  0  0  0
  6  7  1  0  0  0  0
  6 15  2  0  0  0  0
  7  8  2  0  0  0  0
  7 27  1  0  0  0  0
  8  9  1  0  0  0  0
  8 28  1  0  0  0  0
  9 10  1  0  0  0  0
  9 14  2  0  0  0  0
 10 11  1  0  0  0  0
 10 12  1  0  0  0  0
 10 13  1  0  0  0  0
 11 29  1  0  0  0  0
 11 30  1  0  0  0  0
 11 31  1  0  0  0  0
 12 32  1  0  0  0  0
 12 33  1  0  0  0  0
 12 34  1  0  0  0  0
 13 35  1  0  0  0  0
 13 36  1  0  0  0  0
 13 37  1  0  0  0  0
 14 15  1  0  0  0  0
 14 38  1  0  0  0  0
 15 39  1  0  0  0  0
 16 17  1  0  0  0  0
 16 20  2  0  0  0  0
 17 18  1  0  0  0  0
 17 40  1  0  0  0  0
 18 19  2  0  0  0  0
 19 20  1  0  0  0  0
 19 41  1  0  0  0  0
 20 21  1  0  0  0  0
M  END
>  <Energy>
54.3108

$$$$

 OpenBabel04232614443D

 30 32  0  0  0  0  0  0  0  0999 V2000
   -3.0546   -0.2678   -0.0697 N   0  0  0  0  0  0  0  0  0  0  0  0
   -1.8933   -0.3117   -0.0644 C   0  0  0  0  0  0  0  0  0  0  0  0
   -0.4649   -0.3410   -0.0012 C   0  0  0  0  0  0  0  0  0  0  0  0
    0.2260    0.8759   -0.0354 C   0  0  0  0  0  0  0  0  0  0  0  0
   -0.4239    2.1037   -0.1339 N   0  0  0  0  0  0  0  0  0  0  0  0
    1.5695    0.9529   -0.0633 N   0  0  0  0  0  0  0  0  0  0  0  0
    2.2905   -0.1990   -0.0494 C   0  0  0  0  0  0  0  0  0  0  0  0
    3.7601   -0.0738   -0.2249 C   0  0  0  0  0  0  0  0  0  0  0  0
    4.3877    1.1597   -0.4099 C   0  0  0  0  0  0  0  0  0  0  0  0
    5.7588    1.2038   -0.6594 C   0  0  0  0  0  0  0  0  0  0  0  0
    6.4786    0.0188   -0.7165 C   0  0  0  0  0  0  0  0  0  0  0  0
    5.7962   -1.1655   -0.5099 C   0  0  0  0  0  0  0  0  0  0  0  0
    4.4687   -1.2369   -0.2648 N   0  0  0  0  0  0  0  0  0  0  0  0
    1.6643   -1.4423    0.0569 C   0  0  0  0  0  0  0  0  0  0  0  0
    0.2636   -1.5414    0.0713 C   0  0  0  0  0  0  0  0  0  0  0  0
   -0.3834   -2.8764    0.1459 C   0  0  0  0  0  0  0  0  0  0  0  0
   -1.5552   -3.2638    0.7786 C   0  0  0  0  0  0  0  0  0  0  0  0
   -1.8697   -4.6423    0.5919 C   0  0  0  0  0  0  0  0  0  0  0  0
   -0.9094   -5.2917   -0.1445 C   0  0  0  0  0  0  0  0  0  0  0  0
    0.3267   -4.2332   -0.6532 S   0  0  0  0  0  0  0  0  0  0  0  0
   -1.1960    2.2298    0.5118 H   0  0  0  0  0  0  0  0  0  0  0  0
    0.2681    2.8456   -0.0644 H   0  0  0  0  0  0  0  0  0  0  0  0
    3.8144    2.0819   -0.3835 H   0  0  0  0  0  0  0  0  0  0  0  0
    6.2545    2.1569   -0.8211 H   0  0  0  0  0  0  0  0  0  0  0  0
    7.5432    0.0172   -0.9216 H   0  0  0  0  0  0  0  0  0  0  0  0
    6.3117   -2.1213   -0.5449 H   0  0  0  0  0  0  0  0  0  0  0  0
    2.2854   -2.3346    0.0972 H   0  0  0  0  0  0  0  0  0  0  0  0
   -2.1881   -2.5978    1.3528 H   0  0  0  0  0  0  0  0  0  0  0  0
   -2.7524   -5.1296    0.9879 H   0  0  0  0  0  0  0  0  0  0  0  0
   -0.8801   -6.3373   -0.4191 H   0  0  0  0  0  0  0  0  0  0  0  0
  1  2  3  0  0  0  0
  2  3  1  0  0  0  0
  3  4  1  0  0  0  0
  3 15  2  0  0  0  0
  4  5  1  0  0  0  0
  4  6  2  0  0  0  0
  5 21  1  0  0  0  0
  5 22  1  0  0  0  0
  6  7  1  0  0  0  0
  7  8  1  0  0  0  0
  7 14  2  0  0  0  0
  8  9  1  0  0  0  0
  8 13  2  0  0  0  0
  9 10  2  0  0  0  0
  9 23  1  0  0  0  0
 10 11  1  0  0  0  0
 10 24  1  0  0  0  0
 11 12  2  0  0  0  0
 11 25  1  0  0  0  0
 12 13  1  0  0  0  0
 12 26  1  0  0  0  0
 14 15  1  0  0  0  0
 14 27  1  0  0  0  0
 15 16  1  0  0  0  0
 16 17  2  0  0  0  0
 16 20  1  0  0  0  0
 17 18  1  0  0  0  0
 17 28  1  0  0  0  0
 18 19  2  0  0  0  0
 18 29  1  0  0  0  0
 19 20  1  0  0  0  0
 19 30  1  0  0  0  0
M  END
>  <Energy>
29.8544

$$$$

 OpenBabel04232614443D

 29 30  0  0  0  0  0  0  0  0999 V2000
    1.0490    0.0652   -0.1910 C   0  0  0  0  0  0  0  0  0  0  0  0
    2.5419   -0.0466   -0.1122 C   0  0  0  0  0  0  0  0  0  0  0  0
    3.1539   -1.2802   -0.0991 C   0  0  0  0  0  0  0  0  0  0  0  0
    4.5220   -1.2509   -0.0671 C   0  0  0  0  0  0  0  0  0  0  0  0
    5.2591   -2.3986   -0.0448 O   0  0  0  0  0  0  0  0  0  0  0  0
    5.2457   -0.1337   -0.0592 N   0  0  0  0  0  0  0  0  0  0  0  0
    4.5828    1.0288   -0.0631 C   0  0  0  0  0  0  0  0  0  0  0  0
    5.2803    2.2326   -0.0024 N   0  0  0  0  0  0  0  0  0  0  0  0
    6.6415    2.5089   -0.1720 C   0  0  0  0  0  0  0  0  0  0  0  0
    7.2013    3.6275    0.4563 C   0  0  0  0  0  0  0  0  0  0  0  0
    8.5736    3.8846    0.3854 C   0  0  0  0  0  0  0  0  0  0  0  0
    9.4110    3.0272   -0.3265 C   0  0  0  0  0  0  0  0  0  0  0  0
    8.8814    1.9054   -0.9735 C   0  0  0  0  0  0  0  0  0  0  0  0
    9.7501    0.9661   -1.7700 C   0  0  0  0  0  0  0  0  0  0  0  0
   11.0522    1.3634   -1.8428 F   0  0  0  0  0  0  0  0  0  0  0  0
    9.7776   -0.2961   -1.2604 F   0  0  0  0  0  0  0  0  0  0  0  0
    9.3344    0.8392   -3.0629 F   0  0  0  0  0  0  0  0  0  0  0  0
    7.5027    1.6534   -0.8734 C   0  0  0  0  0  0  0  0  0  0  0  0
    3.2410    1.1099   -0.0759 N   0  0  0  0  0  0  0  0  0  0  0  0
    0.5689   -0.9183   -0.1827 H   0  0  0  0  0  0  0  0  0  0  0  0
    0.7647    0.5739   -1.1181 H   0  0  0  0  0  0  0  0  0  0  0  0
    0.6701    0.6371    0.6614 H   0  0  0  0  0  0  0  0  0  0  0  0
    2.5915   -2.2016   -0.1193 H   0  0  0  0  0  0  0  0  0  0  0  0
    4.6579   -3.1519    0.0190 H   0  0  0  0  0  0  0  0  0  0  0  0
    4.6543    3.0043    0.1639 H   0  0  0  0  0  0  0  0  0  0  0  0
    6.5715    4.3005    1.0346 H   0  0  0  0  0  0  0  0  0  0  0  0
    8.9899    4.7494    0.8961 H   0  0  0  0  0  0  0  0  0  0  0  0
   10.4788    3.2355   -0.3711 H   0  0  0  0  0  0  0  0  0  0  0  0
    7.1022    0.7738   -1.3751 H   0  0  0  0  0  0  0  0  0  0  0  0
  1  2  1  0  0  0  0
  1 20  1  0  0  0  0
  1 21  1  0  0  0  0
  1 22  1  0  0  0  0
  2  3  1  0  0  0  0
  2 19  2  0  0  0  0
  3  4  2  0  0  0  0
  3 23  1  0  0  0  0
  4  5  1  0  0  0  0
  4  6  1  0  0  0  0
  5 24  1  0  0  0  0
  6  7  2  0  0  0  0
  7  8  1  0  0  0  0
  7 19  1  0  0  0  0
  8  9  1  0  0  0  0
  8 25  1  0  0  0  0
  9 10  1  0  0  0  0
  9 18  2  0  0  0  0
 10 11  2  0  0  0  0
 10 26  1  0  0  0  0
 11 12  1  0  0  0  0
 11 27  1  0  0  0  0
 12 13  2  0  0  0  0
 12 28  1  0  0  0  0
 13 14  1  0  0  0  0
 13 18  1  0  0  0  0
 14 15  1  0  0  0  0
 14 16  1  0  0  0  0
 14 17  1  0  0  0  0
 18 29  1  0  0  0  0
M  END
>  <Energy>
-53.4208

$$$$

 OpenBabel04232614443D

 36 38  0  0  0  0  0  0  0  0999 V2000
    1.1532    0.1447    0.0025 C   0  0  0  0  0  0  0  0  0  0  0  0
    2.6476    0.2336   -0.0786 C   0  0  0  0  0  0  0  0  0  0  0  0
    3.2886    1.4626   -0.1981 C   0  0  0  0  0  0  0  0  0  0  0  0
    4.6756    1.4831   -0.3367 C   0  0  0  0  0  0  0  0  0  0  0  0
    5.3657    2.7252   -0.5071 C   0  0  0  0  0  0  0  0  0  0  0  0
    5.9376    3.7716   -0.6759 C   0  0  0  0  0  0  0  0  0  0  0  0
    6.5839    5.0194   -0.8899 C   0  0  0  0  0  0  0  0  0  0  0  0
    6.0882    6.2651   -0.6204 C   0  0  0  0  0  0  0  0  0  0  0  0
    7.0450    7.1607   -1.0575 N   0  0  0  0  0  0  0  0  0  0  0  0
    6.8964    8.5763   -1.0293 C   0  0  0  0  0  0  0  0  0  0  0  0
    6.1185    9.1695   -0.0229 C   0  0  0  0  0  0  0  0  0  0  0  0
    5.9686   10.5575    0.0242 C   0  0  0  0  0  0  0  0  0  0  0  0
    6.5773   11.3597   -0.9376 C   0  0  0  0  0  0  0  0  0  0  0  0
    7.3303   10.7756   -1.9541 C   0  0  0  0  0  0  0  0  0  0  0  0
    7.4857    9.3874   -2.0065 C   0  0  0  0  0  0  0  0  0  0  0  0
    8.1194    6.3843   -1.4957 C   0  0  0  0  0  0  0  0  0  0  0  0
    9.4737    6.8876   -1.8570 C   0  0  0  0  0  0  0  0  0  0  0  0
    7.8318    5.0933   -1.4287 N   0  0  0  0  0  0  0  0  0  0  0  0
    5.3823    0.2859   -0.3394 C   0  0  0  0  0  0  0  0  0  0  0  0
    4.6660   -0.8894   -0.2058 C   0  0  0  0  0  0  0  0  0  0  0  0
    3.3220   -0.9409   -0.0784 N   0  0  0  0  0  0  0  0  0  0  0  0
    0.6917    1.1311    0.1108 H   0  0  0  0  0  0  0  0  0  0  0  0
    0.8577   -0.4654    0.8618 H   0  0  0  0  0  0  0  0  0  0  0  0
    0.7640   -0.3184   -0.9098 H   0  0  0  0  0  0  0  0  0  0  0  0
    2.7185    2.3859   -0.1974 H   0  0  0  0  0  0  0  0  0  0  0  0
    5.1316    6.5795   -0.2307 H   0  0  0  0  0  0  0  0  0  0  0  0
    5.6543    8.5776    0.7619 H   0  0  0  0  0  0  0  0  0  0  0  0
    5.3809   11.0128    0.8179 H   0  0  0  0  0  0  0  0  0  0  0  0
    6.4586   12.4397   -0.8994 H   0  0  0  0  0  0  0  0  0  0  0  0
    7.7893   11.4027   -2.7150 H   0  0  0  0  0  0  0  0  0  0  0  0
    8.0298    8.9681   -2.8488 H   0  0  0  0  0  0  0  0  0  0  0  0
    9.6108    7.9590   -1.7122 H   0  0  0  0  0  0  0  0  0  0  0  0
    9.6979    6.6448   -2.9002 H   0  0  0  0  0  0  0  0  0  0  0  0
   10.2236    6.3967   -1.2267 H   0  0  0  0  0  0  0  0  0  0  0  0
    6.4605    0.2625   -0.4515 H   0  0  0  0  0  0  0  0  0  0  0  0
    5.1663   -1.8535   -0.2046 H   0  0  0  0  0  0  0  0  0  0  0  0
  1  2  1  0  0  0  0
  1 22  1  0  0  0  0
  1 23  1  0  0  0  0
  1 24  1  0  0  0  0
  2  3  1  0  0  0  0
  2 21  2  0  0  0  0
  3  4  2  0  0  0  0
  3 25  1  0  0  0  0
  4  5  1  0  0  0  0
  4 19  1  0  0  0  0
  5  6  3  0  0  0  0
  6  7  1  0  0  0  0
  7  8  2  0  0  0  0
  7 18  1  0  0  0  0
  8  9  1  0  0  0  0
  8 26  1  0  0  0  0
  9 10  1  0  0  0  0
  9 16  1  0  0  0  0
 10 11  1  0  0  0  0
 10 15  2  0  0  0  0
 11 12  2  0  0  0  0
 11 27  1  0  0  0  0
 12 13  1  0  0  0  0
 12 28  1  0  0  0  0
 13 14  2  0  0  0  0
 13 29  1  0  0  0  0
 14 15  1  0  0  0  0
 14 30  1  0  0  0  0
 15 31  1  0  0  0  0
 16 17  1  0  0  0  0
 16 18  2  0  0  0  0
 17 32  1  0  0  0  0
 17 33  1  0  0  0  0
 17 34  1  0  0  0  0
 19 20  2  0  0  0  0
 19 35  1  0  0  0  0
 20 21  1  0  0  0  0
 20 36  1  0  0  0  0
M  END
>  <Energy>
46.0282

$$$$

 OpenBabel04232614443D

 29 31  0  0  0  0  0  0  0  0999 V2000
    0.9873    0.0095    0.0542 O   0  5  0  0  0  0  0  0  0  0  0  0
    2.2581   -0.0229   -0.0504 N   0  3  0  0  0  0  0  0  0  0  0  0
    2.8800   -0.8086   -0.9031 C   0  0  0  0  0  0  0  0  0  0  0  0
    2.2113   -1.6385   -1.9201 C   0  0  0  0  0  0  0  0  0  0  0  0
    0.9769   -1.2787   -2.4998 C   0  0  0  0  0  0  0  0  0  0  0  0
    0.4019   -2.0658   -3.5032 C   0  0  0  0  0  0  0  0  0  0  0  0
    1.0876   -3.1869   -3.9073 C   0  0  0  0  0  0  0  0  0  0  0  0
    2.3010   -3.5308   -3.3580 C   0  0  0  0  0  0  0  0  0  0  0  0
    2.8980   -2.7735   -2.3698 C   0  0  0  0  0  0  0  0  0  0  0  0
    2.8105   -4.6674   -3.9057 O   0  0  0  0  0  0  0  0  0  0  0  0
    1.7524   -5.0267   -4.8202 C   0  0  0  0  0  0  0  0  0  0  0  0
    0.6821   -4.0624   -4.8653 O   0  0  0  0  0  0  0  0  0  0  0  0
    3.0526    0.8380    0.8268 C   0  0  0  0  0  0  0  0  0  0  0  0
    2.5524    1.1301    2.1043 C   0  0  0  0  0  0  0  0  0  0  0  0
    3.2198    2.0403    2.9262 C   0  0  0  0  0  0  0  0  0  0  0  0
    4.3839    2.6574    2.4719 C   0  0  0  0  0  0  0  0  0  0  0  0
    5.1889    3.8039    3.4705 Cl  0  0  0  0  0  0  0  0  0  0  0  0
    4.8899    2.3693    1.2041 C   0  0  0  0  0  0  0  0  0  0  0  0
    4.2217    1.4657    0.3734 C   0  0  0  0  0  0  0  0  0  0  0  0
    3.9791   -0.8640   -0.8476 H   0  0  0  0  0  0  0  0  0  0  0  0
    0.4486   -0.3812   -2.1925 H   0  0  0  0  0  0  0  0  0  0  0  0
   -0.5500   -1.7965   -3.9480 H   0  0  0  0  0  0  0  0  0  0  0  0
    3.8566   -3.0681   -1.9609 H   0  0  0  0  0  0  0  0  0  0  0  0
    1.3368   -5.9932   -4.5119 H   0  0  0  0  0  0  0  0  0  0  0  0
    2.1752   -5.1300   -5.8259 H   0  0  0  0  0  0  0  0  0  0  0  0
    1.6260    0.6737    2.4512 H   0  0  0  0  0  0  0  0  0  0  0  0
    2.8152    2.2777    3.9068 H   0  0  0  0  0  0  0  0  0  0  0  0
    5.7912    2.8632    0.8490 H   0  0  0  0  0  0  0  0  0  0  0  0
    4.6087    1.2944   -0.6278 H   0  0  0  0  0  0  0  0  0  0  0  0
  1  2  1  0  0  0  0
  2  3  2  0  0  0  0
  2 13  1  0  0  0  0
  3  4  1  0  0  0  0
  3 20  1  0  0  0  0
  4  5  1  0  0  0  0
  4  9  2  0  0  0  0
  5  6  2  0  0  0  0
  5 21  1  0  0  0  0
  6  7  1  0  0  0  0
  6 22  1  0  0  0  0
  7  8  2  0  0  0  0
  7 12  1  0  0  0  0
  8  9  1  0  0  0  0
  8 10  1  0  0  0  0
  9 23  1  0  0  0  0
 10 11  1  0  0  0  0
 11 12  1  0  0  0  0
 11 24  1  0  0  0  0
 11 25  1  0  0  0  0
 13 14  1  0  0  0  0
 13 19  2  0  0  0  0
 14 15  2  0  0  0  0
 14 26  1  0  0  0  0
 15 16  1  0  0  0  0
 15 27  1  0  0  0  0
 16 17  1  0  0  0  0
 16 18  2  0  0  0  0
 18 19  1  0  0  0  0
 18 28  1  0  0  0  0
 19 29  1  0  0  0  0
M  CHG  2   1  -1   2   1
M  END
>  <Energy>
62.4455

$$$$

 OpenBabel04232614443D

 27 29  0  0  0  0  0  0  0  0999 V2000
    0.6196    2.2938    0.0500 C   0  0  0  0  0  0  0  0  0  0  0  0
   -0.2981    1.0924    0.0403 C   0  0  0  0  0  0  0  0  0  0  0  0
    0.2440   -0.2104   -0.0311 C   0  0  0  0  0  0  0  0  0  0  0  0
    1.9450   -0.5087   -0.1589 Cl  0  0  0  0  0  0  0  0  0  0  0  0
   -0.5784   -1.3411    0.0005 C   0  0  0  0  0  0  0  0  0  0  0  0
   -1.9578   -1.2023    0.0733 C   0  0  0  0  0  0  0  0  0  0  0  0
   -2.5245    0.0689    0.1150 C   0  0  0  0  0  0  0  0  0  0  0  0
   -1.7155    1.2210    0.1117 C   0  0  0  0  0  0  0  0  0  0  0  0
   -2.3567    2.4960    0.1230 N   0  0  0  0  0  0  0  0  0  0  0  0
   -1.8264    3.5453   -0.5531 N   0  0  0  0  0  0  0  0  0  0  0  0
   -2.7270    4.5089   -0.5243 N   0  0  0  0  0  0  0  0  0  0  0  0
   -3.8174    4.1368    0.2028 N   0  0  0  0  0  0  0  0  0  0  0  0
   -3.5810    2.9125    0.6442 C   0  0  0  0  0  0  0  0  0  0  0  0
   -4.4390    2.2538    1.5910 C   0  0  0  0  0  0  0  0  0  0  0  0
   -4.1104    1.3683    2.6053 C   0  0  0  0  0  0  0  0  0  0  0  0
   -5.2477    0.9440    3.3578 C   0  0  0  0  0  0  0  0  0  0  0  0
   -6.4055    1.5463    2.9261 C   0  0  0  0  0  0  0  0  0  0  0  0
   -6.1267    2.5903    1.6050 S   0  0  0  0  0  0  0  0  0  0  0  0
    1.6518    2.0468    0.3091 H   0  0  0  0  0  0  0  0  0  0  0  0
    0.3048    3.0133    0.8135 H   0  0  0  0  0  0  0  0  0  0  0  0
    0.6342    2.7681   -0.9364 H   0  0  0  0  0  0  0  0  0  0  0  0
   -0.1430   -2.3368   -0.0463 H   0  0  0  0  0  0  0  0  0  0  0  0
   -2.5934   -2.0855    0.0733 H   0  0  0  0  0  0  0  0  0  0  0  0
   -3.6112    0.1286    0.0986 H   0  0  0  0  0  0  0  0  0  0  0  0
   -3.1025    1.0301    2.8161 H   0  0  0  0  0  0  0  0  0  0  0  0
   -5.2130    0.2454    4.1858 H   0  0  0  0  0  0  0  0  0  0  0  0
   -7.4039    1.4292    3.3247 H   0  0  0  0  0  0  0  0  0  0  0  0
  1  2  1  0  0  0  0
  1 19  1  0  0  0  0
  1 20  1  0  0  0  0
  1 21  1  0  0  0  0
  2  3  1  0  0  0  0
  2  8  2  0  0  0  0
  3  4  1  0  0  0  0
  3  5  2  0  0  0  0
  5  6  1  0  0  0  0
  5 22  1  0  0  0  0
  6  7  2  0  0  0  0
  6 23  1  0  0  0  0
  7  8  1  0  0  0  0
  7 24  1  0  0  0  0
  8  9  1  0  0  0  0
  9 10  1  0  0  0  0
  9 13  1  0  0  0  0
 10 11  2  0  0  0  0
 11 12  1  0  0  0  0
 12 13  2  0  0  0  0
 13 14  1  0  0  0  0
 14 15  2  0  0  0  0
 14 18  1  0  0  0  0
 15 16  1  0  0  0  0
 15 25  1  0  0  0  0
 16 17  2  0  0  0  0
 16 26  1  0  0  0  0
 17 18  1  0  0  0  0
 17 27  1  0  0  0  0
M  END
>  <Energy>
67.5412

$$$$

 OpenBabel04232614443D

 39 39  0  0  0  0  0  0  0  0999 V2000
    0.9714    1.1947   -3.7030 C   0  0  0  0  0  0  0  0  0  0  0  0
    1.7756    0.1652   -4.4725 C   0  0  0  0  0  0  0  0  0  0  0  0
    2.9391   -0.1530   -3.6991 O   0  0  0  0  0  0  0  0  0  0  0  0
    4.0431    0.5883   -3.9497 C   0  0  0  0  0  0  0  0  0  0  0  0
    4.1704    1.4056   -4.8526 O   0  0  0  0  0  0  0  0  0  0  0  0
    4.9523    0.3575   -2.9570 N   0  0  0  0  0  0  0  0  0  0  0  0
    6.2785    0.7005   -2.8851 C   0  0  0  0  0  0  0  0  0  0  0  0
    7.0660    0.2987   -1.4587 S   0  0  0  0  0  0  0  0  0  0  0  0
    6.7970    1.3355   -3.9903 N   0  0  0  0  0  0  0  0  0  0  0  0
    8.1405    1.3704   -4.4162 C   0  0  0  0  0  0  0  0  0  0  0  0
    9.0217    0.3270   -4.1442 C   0  0  0  0  0  0  0  0  0  0  0  0
   10.3574    0.3936   -4.5427 C   0  0  0  0  0  0  0  0  0  0  0  0
   10.8569    1.5045   -5.2298 C   0  0  0  0  0  0  0  0  0  0  0  0
   12.3493    1.6435   -5.5686 C   0  0  0  0  0  0  0  0  0  0  0  0
   13.2079    0.4526   -5.0796 C   0  0  0  0  0  0  0  0  0  0  0  0
   12.5419    1.7531   -7.0935 C   0  0  0  0  0  0  0  0  0  0  0  0
   12.9067    2.9113   -4.8863 C   0  0  0  0  0  0  0  0  0  0  0  0
    9.9350    2.5139   -5.5729 C   0  0  0  0  0  0  0  0  0  0  0  0
    8.5888    2.4405   -5.1856 C   0  0  0  0  0  0  0  0  0  0  0  0
    0.0641    1.4719   -4.2446 H   0  0  0  0  0  0  0  0  0  0  0  0
    1.5671    2.0952   -3.5197 H   0  0  0  0  0  0  0  0  0  0  0  0
    0.6921    0.7988   -2.7203 H   0  0  0  0  0  0  0  0  0  0  0  0
    2.0318    0.5191   -5.4772 H   0  0  0  0  0  0  0  0  0  0  0  0
    1.1960   -0.7567   -4.5878 H   0  0  0  0  0  0  0  0  0  0  0  0
    4.6140   -0.2238   -2.2042 H   0  0  0  0  0  0  0  0  0  0  0  0
    6.1408    1.9100   -4.5151 H   0  0  0  0  0  0  0  0  0  0  0  0
    8.6896   -0.5738   -3.6408 H   0  0  0  0  0  0  0  0  0  0  0  0
   10.9870   -0.4514   -4.2792 H   0  0  0  0  0  0  0  0  0  0  0  0
   12.9005   -0.4874   -5.5532 H   0  0  0  0  0  0  0  0  0  0  0  0
   13.1386    0.3249   -3.9925 H   0  0  0  0  0  0  0  0  0  0  0  0
   14.2674    0.6018   -5.3178 H   0  0  0  0  0  0  0  0  0  0  0  0
   12.1361    0.8733   -7.6066 H   0  0  0  0  0  0  0  0  0  0  0  0
   13.6053    1.8273   -7.3505 H   0  0  0  0  0  0  0  0  0  0  0  0
   12.0468    2.6363   -7.5107 H   0  0  0  0  0  0  0  0  0  0  0  0
   12.7440    2.8781   -3.8018 H   0  0  0  0  0  0  0  0  0  0  0  0
   12.4330    3.8249   -5.2614 H   0  0  0  0  0  0  0  0  0  0  0  0
   13.9843    3.0123   -5.0579 H   0  0  0  0  0  0  0  0  0  0  0  0
   10.2608    3.3910   -6.1281 H   0  0  0  0  0  0  0  0  0  0  0  0
    7.9169    3.2546   -5.4521 H   0  0  0  0  0  0  0  0  0  0  0  0
  1  2  1  0  0  0  0
  1 20  1  0  0  0  0
  1 21  1  0  0  0  0
  1 22  1  0  0  0  0
  2  3  1  0  0  0  0
  2 23  1  0  0  0  0
  2 24  1  0  0  0  0
  3  4  1  0  0  0  0
  4  5  2  0  0  0  0
  4  6  1  0  0  0  0
  6  7  1  0  0  0  0
  6 25  1  0  0  0  0
  7  8  2  0  0  0  0
  7  9  1  0  0  0  0
  9 10  1  0  0  0  0
  9 26  1  0  0  0  0
 10 11  1  0  0  0  0
 10 19  2  0  0  0  0
 11 12  2  0  0  0  0
 11 27  1  0  0  0  0
 12 13  1  0  0  0  0
 12 28  1  0  0  0  0
 13 14  1  0  0  0  0
 13 18  2  0  0  0  0
 14 15  1  0  0  0  0
 14 16  1  0  0  0  0
 14 17  1  0  0  0  0
 15 29  1  0  0  0  0
 15 30  1  0  0  0  0
 15 31  1  0  0  0  0
 16 32  1  0  0  0  0
 16 33  1  0  0  0  0
 16 34  1  0  0  0  0
 17 35  1  0  0  0  0
 17 36  1  0  0  0  0
 17 37  1  0  0  0  0
 18 19  1  0  0  0  0
 18 38  1  0  0  0  0
 19 39  1  0  0  0  0
M  END
>  <Energy>
-56.4099

$$$$

 OpenBabel04232614443D

 33 36  0  0  1  0  0  0  0  0999 V2000
    1.6688    0.0792   -0.3718 O   0  0  0  0  0  0  0  0  0  0  0  0
    0.4658    0.2525   -0.4139 C   0  0  0  0  0  0  0  0  0  0  0  0
   -0.4390   -0.6793   -0.8261 O   0  0  0  0  0  0  0  0  0  0  0  0
   -1.6917   -0.0262   -0.9331 C   0  0  0  0  0  0  0  0  0  0  0  0
   -1.5702    1.1514   -0.0046 C   0  0  3  0  0  0  0  0  0  0  0  0
   -2.0205    0.9341    1.4470 C   0  0  0  0  0  0  0  0  0  0  0  0
   -3.4377    0.6381    1.5889 N   0  0  0  0  0  0  0  0  0  0  0  0
   -3.9667   -0.6398    1.5871 C   0  0  0  0  0  0  0  0  0  0  0  0
   -3.3462   -1.9013    1.5900 C   0  0  0  0  0  0  0  0  0  0  0  0
   -4.1504   -3.0322    1.4309 C   0  0  0  0  0  0  0  0  0  0  0  0
   -5.5293   -2.9161    1.2987 C   0  0  0  0  0  0  0  0  0  0  0  0
   -6.1442   -1.6632    1.3727 C   0  0  0  0  0  0  0  0  0  0  0  0
   -5.3537   -0.5053    1.5294 C   0  0  0  0  0  0  0  0  0  0  0  0
   -5.6569    0.8807    1.6865 C   0  0  0  0  0  0  0  0  0  0  0  0
   -6.8673    1.5964    1.8117 C   0  0  0  0  0  0  0  0  0  0  0  0
   -6.8385    2.9820    1.9832 C   0  0  0  0  0  0  0  0  0  0  0  0
   -5.6241    3.6600    2.0031 C   0  0  0  0  0  0  0  0  0  0  0  0
   -4.4101    2.9768    1.8635 C   0  0  0  0  0  0  0  0  0  0  0  0
   -4.4454    1.5788    1.7204 C   0  0  0  0  0  0  0  0  0  0  0  0
   -0.1644    1.4049   -0.0295 O   0  0  0  0  0  0  0  0  0  0  0  0
   -2.4986   -0.7191   -0.7022 H   0  0  0  0  0  0  0  0  0  0  0  0
   -1.8244    0.2935   -1.9732 H   0  0  0  0  0  0  0  0  0  0  0  0
   -2.0932    2.0169   -0.4255 H   0  0  0  0  0  0  0  0  0  0  0  0
   -1.8066    1.8361    2.0333 H   0  0  0  0  0  0  0  0  0  0  0  0
   -1.4449    0.1401    1.9352 H   0  0  0  0  0  0  0  0  0  0  0  0
   -2.2705   -2.0117    1.6865 H   0  0  0  0  0  0  0  0  0  0  0  0
   -3.6886   -4.0169    1.3996 H   0  0  0  0  0  0  0  0  0  0  0  0
   -6.1361   -3.8054    1.1496 H   0  0  0  0  0  0  0  0  0  0  0  0
   -7.2248   -1.5829    1.2986 H   0  0  0  0  0  0  0  0  0  0  0  0
   -7.8175    1.0695    1.8050 H   0  0  0  0  0  0  0  0  0  0  0  0
   -7.7709    3.5277    2.1071 H   0  0  0  0  0  0  0  0  0  0  0  0
   -5.6206    4.7405    2.1380 H   0  0  0  0  0  0  0  0  0  0  0  0
   -3.4753    3.5273    1.8888 H   0  0  0  0  0  0  0  0  0  0  0  0
  1  2  2  0  0  0  0
  2  3  1  0  0  0  0
  2 20  1  0  0  0  0
  3  4  1  0  0  0  0
  4  5  1  0  0  0  0
  4 21  1  0  0  0  0
  4 22  1  0  0  0  0
  5  6  1  0  0  0  0
  5 20  1  0  0  0  0
  5 23  1  0  0  0  0
  6  7  1  0  0  0  0
  6 24  1  0  0  0  0
  6 25  1  0  0  0  0
  7  8  1  0  0  0  0
  7 19  1  0  0  0  0
  8  9  1  0  0  0  0
  8 13  2  0  0  0  0
  9 10  2  0  0  0  0
  9 26  1  0  0  0  0
 10 11  1  0  0  0  0
 10 27  1  0  0  0  0
 11 12  2  0  0  0  0
 11 28  1  0  0  0  0
 12 13  1  0  0  0  0
 12 29  1  0  0  0  0
 13 14  1  0  0  0  0
 14 15  1  0  0  0  0
 14 19  2  0  0  0  0
 15 16  2  0  0  0  0
 15 30  1  0  0  0  0
 16 17  1  0  0  0  0
 16 31  1  0  0  0  0
 17 18  2  0  0  0  0
 17 32  1  0  0  0  0
 18 19  1  0  0  0  0
 18 33  1  0  0  0  0
M  END
>  <Energy>
16.0314

$$$$

 OpenBabel04232614443D

 29 30  0  0  0  0  0  0  0  0999 V2000
    1.1360    0.1186   -0.3652 C   0  0  0  0  0  0  0  0  0  0  0  0
    2.4545    0.0824   -0.1522 C   0  0  0  0  0  0  0  0  0  0  0  0
    3.2872   -1.0895    0.0433 C   0  0  0  0  0  0  0  0  0  0  0  0
    2.8281   -2.5039   -0.0980 C   0  0  0  0  0  0  0  0  0  0  0  0
    4.5603   -0.7169    0.2592 C   0  0  0  0  0  0  0  0  0  0  0  0
    5.6868   -1.5367    0.4615 C   0  0  0  0  0  0  0  0  0  0  0  0
    6.5780   -2.2571    0.6319 N   0  0  0  0  0  0  0  0  0  0  0  0
    4.6172    0.7527    0.1475 C   0  0  0  0  0  0  0  0  0  0  0  0
    5.6242    1.4302    0.2632 O   0  0  0  0  0  0  0  0  0  0  0  0
    3.3102    1.1672   -0.1353 N   0  0  0  0  0  0  0  0  0  0  0  0
    3.0322    2.5165   -0.4555 C   0  0  0  0  0  0  0  0  0  0  0  0
    2.1664    3.2424    0.3784 C   0  0  0  0  0  0  0  0  0  0  0  0
    1.9468    4.6044    0.1622 C   0  0  0  0  0  0  0  0  0  0  0  0
    2.5871    5.2544   -0.8876 C   0  0  0  0  0  0  0  0  0  0  0  0
    3.4211    4.5355   -1.7415 C   0  0  0  0  0  0  0  0  0  0  0  0
    3.6417    3.1557   -1.5531 C   0  0  0  0  0  0  0  0  0  0  0  0
    4.4514    2.4381   -2.6089 C   0  0  0  0  0  0  0  0  0  0  0  0
    4.4865    1.0795   -2.5077 F   0  0  0  0  0  0  0  0  0  0  0  0
    3.9506    2.6733   -3.8603 F   0  0  0  0  0  0  0  0  0  0  0  0
    5.7475    2.8486   -2.6576 F   0  0  0  0  0  0  0  0  0  0  0  0
    0.5259   -0.7771   -0.3789 H   0  0  0  0  0  0  0  0  0  0  0  0
    0.6033    1.0491   -0.5312 H   0  0  0  0  0  0  0  0  0  0  0  0
    1.7752   -2.5869   -0.3765 H   0  0  0  0  0  0  0  0  0  0  0  0
    2.9715   -3.0558    0.8352 H   0  0  0  0  0  0  0  0  0  0  0  0
    3.3998   -3.0046   -0.8896 H   0  0  0  0  0  0  0  0  0  0  0  0
    1.6910    2.7631    1.2315 H   0  0  0  0  0  0  0  0  0  0  0  0
    1.2922    5.1638    0.8260 H   0  0  0  0  0  0  0  0  0  0  0  0
    2.4331    6.3191   -1.0487 H   0  0  0  0  0  0  0  0  0  0  0  0
    3.8970    5.0504   -2.5764 H   0  0  0  0  0  0  0  0  0  0  0  0
  1  2  2  0  0  0  0
  1 21  1  0  0  0  0
  1 22  1  0  0  0  0
  2  3  1  0  0  0  0
  2 10  1  0  0  0  0
  3  4  1  0  0  0  0
  3  5  2  0  0  0  0
  4 23  1  0  0  0  0
  4 24  1  0  0  0  0
  4 25  1  0  0  0  0
  5  6  1  0  0  0  0
  5  8  1  0  0  0  0
  6  7  3  0  0  0  0
  8  9  2  0  0  0  0
  8 10  1  0  0  0  0
 10 11  1  0  0  0  0
 11 12  1  0  0  0  0
 11 16  2  0  0  0  0
 12 13  2  0  0  0  0
 12 26  1  0  0  0  0
 13 14  1  0  0  0  0
 13 27  1  0  0  0  0
 14 15  2  0  0  0  0
 14 28  1  0  0  0  0
 15 16  1  0  0  0  0
 15 29  1  0  0  0  0
 16 17  1  0  0  0  0
 17 18  1  0  0  0  0
 17 19  1  0  0  0  0
 17 20  1  0  0  0  0
M  END
>  <Energy>
50.86

$$$$

 OpenBabel04232614443D

 26 27  0  0  0  0  0  0  0  0999 V2000
    1.1098    0.1768   -0.0657 C   0  0  0  0  0  0  0  0  0  0  0  0
    2.6052    0.0685   -0.0919 C   0  0  0  0  0  0  0  0  0  0  0  0
    3.2223   -1.1618   -0.1089 C   0  0  0  0  0  0  0  0  0  0  0  0
    4.5898   -1.1269   -0.1183 C   0  0  0  0  0  0  0  0  0  0  0  0
    5.3342   -2.2685   -0.1325 O   0  0  0  0  0  0  0  0  0  0  0  0
    5.3069   -0.0053   -0.1034 N   0  0  0  0  0  0  0  0  0  0  0  0
    4.6431    1.1533   -0.0794 C   0  0  0  0  0  0  0  0  0  0  0  0
    5.3202    2.3707    0.0141 N   0  0  0  0  0  0  0  0  0  0  0  0
    6.6527    2.6506    0.3537 C   0  0  0  0  0  0  0  0  0  0  0  0
    6.9706    3.9158    0.8736 C   0  0  0  0  0  0  0  0  0  0  0  0
    8.2702    4.2237    1.2912 C   0  0  0  0  0  0  0  0  0  0  0  0
    9.2811    3.2725    1.1832 C   0  0  0  0  0  0  0  0  0  0  0  0
    8.9879    2.0261    0.6420 C   0  0  0  0  0  0  0  0  0  0  0  0
   10.3532    0.7256    0.4851 Br  0  0  0  0  0  0  0  0  0  0  0  0
    7.6917    1.7198    0.2237 C   0  0  0  0  0  0  0  0  0  0  0  0
    3.3004    1.2283   -0.0854 N   0  0  0  0  0  0  0  0  0  0  0  0
    0.6336   -0.8092   -0.0594 H   0  0  0  0  0  0  0  0  0  0  0  0
    0.7578    0.7201   -0.9477 H   0  0  0  0  0  0  0  0  0  0  0  0
    0.7932    0.7120    0.8347 H   0  0  0  0  0  0  0  0  0  0  0  0
    2.6633   -2.0860   -0.1054 H   0  0  0  0  0  0  0  0  0  0  0  0
    4.7349   -3.0286   -0.1205 H   0  0  0  0  0  0  0  0  0  0  0  0
    4.6455    3.1104    0.1395 H   0  0  0  0  0  0  0  0  0  0  0  0
    6.1974    4.6726    0.9827 H   0  0  0  0  0  0  0  0  0  0  0  0
    8.4886    5.2018    1.7114 H   0  0  0  0  0  0  0  0  0  0  0  0
   10.2865    3.5084    1.5201 H   0  0  0  0  0  0  0  0  0  0  0  0
    7.5056    0.7400   -0.2043 H   0  0  0  0  0  0  0  0  0  0  0  0
  1  2  1  0  0  0  0
  1 17  1  0  0  0  0
  1 18  1  0  0  0  0
  1 19  1  0  0  0  0
  2  3  1  0  0  0  0
  2 16  2  0  0  0  0
  3  4  2  0  0  0  0
  3 20  1  0  0  0  0
  4  5  1  0  0  0  0
  4  6  1  0  0  0  0
  5 21  1  0  0  0  0
  6  7  2  0  0  0  0
  7  8  1  0  0  0  0
  7 16  1  0  0  0  0
  8  9  1  0  0  0  0
  8 22  1  0  0  0  0
  9 10  1  0  0  0  0
  9 15  2  0  0  0  0
 10 11  2  0  0  0  0
 10 23  1  0  0  0  0
 11 12  1  0  0  0  0
 11 24  1  0  0  0  0
 12 13  2  0  0  0  0
 12 25  1  0  0  0  0
 13 14  1  0  0  0  0
 13 15  1  0  0  0  0
 15 26  1  0  0  0  0
M  END
>  <Energy>
-77.579

$$$$

 OpenBabel04232614443D

 29 31  0  0  0  0  0  0  0  0999 V2000
   -3.0726    0.0040   -0.0480 N   0  0  0  0  0  0  0  0  0  0  0  0
   -1.9147   -0.0032   -0.0263 C   0  0  0  0  0  0  0  0  0  0  0  0
   -0.4783   -0.0096    0.0116 C   0  0  0  0  0  0  0  0  0  0  0  0
    0.2043   -1.0292    0.6830 C   0  0  0  0  0  0  0  0  0  0  0  0
    1.6046   -1.0331    0.7247 C   0  0  0  0  0  0  0  0  0  0  0  0
    2.3362   -0.0245    0.0856 C   0  0  0  0  0  0  0  0  0  0  0  0
    3.8030   -0.0565    0.0896 C   0  0  0  0  0  0  0  0  0  0  0  0
    4.5427   -0.6765   -0.8400 C   0  0  0  0  0  0  0  0  0  0  0  0
    4.0706   -1.4127   -2.0419 C   0  0  0  0  0  0  0  0  0  0  0  0
    2.9414   -1.5704   -2.4533 O   0  0  0  0  0  0  0  0  0  0  0  0
    5.2818   -1.9328   -2.6798 C   0  0  0  0  0  0  0  0  0  0  0  0
    5.3533   -2.7039   -3.8254 C   0  0  0  0  0  0  0  0  0  0  0  0
    6.6194   -3.1021   -4.2565 C   0  0  0  0  0  0  0  0  0  0  0  0
    7.7734   -2.7256   -3.5411 C   0  0  0  0  0  0  0  0  0  0  0  0
    7.6814   -1.9421   -2.3829 C   0  0  0  0  0  0  0  0  0  0  0  0
    6.4180   -1.5538   -1.9693 C   0  0  0  0  0  0  0  0  0  0  0  0
    6.0334   -0.7449   -0.8004 C   0  0  0  0  0  0  0  0  0  0  0  0
    6.7829   -0.2532    0.0163 O   0  0  0  0  0  0  0  0  0  0  0  0
    1.6507    0.9947   -0.5852 C   0  0  0  0  0  0  0  0  0  0  0  0
    0.2498    1.0044   -0.6208 C   0  0  0  0  0  0  0  0  0  0  0  0
   -0.3465   -1.8324    1.1695 H   0  0  0  0  0  0  0  0  0  0  0  0
    2.1141   -1.8384    1.2492 H   0  0  0  0  0  0  0  0  0  0  0  0
    4.2813    0.4536    0.9230 H   0  0  0  0  0  0  0  0  0  0  0  0
    4.4532   -2.9874   -4.3624 H   0  0  0  0  0  0  0  0  0  0  0  0
    6.7135   -3.7112   -5.1543 H   0  0  0  0  0  0  0  0  0  0  0  0
    8.7488   -3.0528   -3.8984 H   0  0  0  0  0  0  0  0  0  0  0  0
    8.5709   -1.6540   -1.8297 H   0  0  0  0  0  0  0  0  0  0  0  0
    2.1994    1.7818   -1.0982 H   0  0  0  0  0  0  0  0  0  0  0  0
   -0.2633    1.8001   -1.1558 H   0  0  0  0  0  0  0  0  0  0  0  0
  1  2  3  0  0  0  0
  2  3  1  0  0  0  0
  3  4  1  0  0  0  0
  3 20  2  0  0  0  0
  4  5  2  0  0  0  0
  4 21  1  0  0  0  0
  5  6  1  0  0  0  0
  5 22  1  0  0  0  0
  6  7  1  0  0  0  0
  6 19  2  0  0  0  0
  7  8  2  0  0  0  0
  7 23  1  0  0  0  0
  8  9  1  0  0  0  0
  8 17  1  0  0  0  0
  9 10  2  0  0  0  0
  9 11  1  0  0  0  0
 11 12  1  0  0  0  0
 11 16  2  0  0  0  0
 12 13  2  0  0  0  0
 12 24  1  0  0  0  0
 13 14  1  0  0  0  0
 13 25  1  0  0  0  0
 14 15  2  0  0  0  0
 14 26  1  0  0  0  0
 15 16  1  0  0  0  0
 15 27  1  0  0  0  0
 16 17  1  0  0  0  0
 17 18  2  0  0  0  0
 19 20  1  0  0  0  0
 19 28  1  0  0  0  0
 20 29  1  0  0  0  0
M  END
>  <Energy>
77.6719

$$$$

 OpenBabel04232614443D

 36 37  0  0  0  0  0  0  0  0999 V2000
    2.6333   -0.8603   -0.7595 O   0  0  0  0  0  0  0  0  0  0  0  0
    2.1816    0.0604   -0.0875 C   0  0  0  0  0  0  0  0  0  0  0  0
    0.8191    0.2112    0.0482 N   0  0  0  0  0  0  0  0  0  0  0  0
    0.1387    1.2733    0.6225 C   0  0  0  0  0  0  0  0  0  0  0  0
    0.6935    2.2553    1.1117 O   0  0  0  0  0  0  0  0  0  0  0  0
   -1.3485    1.2202    0.6013 C   0  0  0  0  0  0  0  0  0  0  0  0
   -2.0675    0.0187    0.5440 C   0  0  0  0  0  0  0  0  0  0  0  0
   -3.4679    0.0431    0.5434 C   0  0  0  0  0  0  0  0  0  0  0  0
   -4.1468    1.2602    0.6084 C   0  0  0  0  0  0  0  0  0  0  0  0
   -5.8661    1.2819    0.6107 Cl  0  0  0  0  0  0  0  0  0  0  0  0
   -3.4408    2.4580    0.6815 C   0  0  0  0  0  0  0  0  0  0  0  0
   -2.0439    2.4372    0.6819 C   0  0  0  0  0  0  0  0  0  0  0  0
    2.9380    0.9829    0.5655 N   0  0  0  0  0  0  0  0  0  0  0  0
    4.3818    1.1060    0.4427 C   0  0  0  0  0  0  0  0  0  0  0  0
    4.9133    1.8808    1.6559 C   0  0  0  0  0  0  0  0  0  0  0  0
    6.3954    2.2153    1.5422 C   0  0  0  0  0  0  0  0  0  0  0  0
    6.6993    2.9451    0.2395 C   0  0  0  0  0  0  0  0  0  0  0  0
    6.2420    2.1274   -0.9630 C   0  0  0  0  0  0  0  0  0  0  0  0
    4.7549    1.7931   -0.8795 C   0  0  0  0  0  0  0  0  0  0  0  0
    0.3111   -0.4947   -0.4611 H   0  0  0  0  0  0  0  0  0  0  0  0
   -1.5686   -0.9457    0.5315 H   0  0  0  0  0  0  0  0  0  0  0  0
   -4.0238   -0.8902    0.5038 H   0  0  0  0  0  0  0  0  0  0  0  0
   -3.9652    3.4080    0.7438 H   0  0  0  0  0  0  0  0  0  0  0  0
   -1.4990    3.3779    0.7477 H   0  0  0  0  0  0  0  0  0  0  0  0
    2.4252    1.7944    0.9085 H   0  0  0  0  0  0  0  0  0  0  0  0
    4.8082    0.0946    0.4434 H   0  0  0  0  0  0  0  0  0  0  0  0
    4.7366    1.3012    2.5705 H   0  0  0  0  0  0  0  0  0  0  0  0
    4.3484    2.8155    1.7735 H   0  0  0  0  0  0  0  0  0  0  0  0
    6.9860    1.2930    1.5952 H   0  0  0  0  0  0  0  0  0  0  0  0
    6.6958    2.8382    2.3924 H   0  0  0  0  0  0  0  0  0  0  0  0
    7.7743    3.1435    0.1682 H   0  0  0  0  0  0  0  0  0  0  0  0
    6.1927    3.9185    0.2360 H   0  0  0  0  0  0  0  0  0  0  0  0
    6.8246    1.1996   -1.0173 H   0  0  0  0  0  0  0  0  0  0  0  0
    6.4424    2.6852   -1.8848 H   0  0  0  0  0  0  0  0  0  0  0  0
    4.4803    1.1516   -1.7262 H   0  0  0  0  0  0  0  0  0  0  0  0
    4.1725    2.7169   -0.9938 H   0  0  0  0  0  0  0  0  0  0  0  0
  1  2  2  0  0  0  0
  2  3  1  0  0  0  0
  2 13  1  0  0  0  0
  3  4  1  0  0  0  0
  3 20  1  0  0  0  0
  4  5  2  0  0  0  0
  4  6  1  0  0  0  0
  6  7  1  0  0  0  0
  6 12  2  0  0  0  0
  7  8  2  0  0  0  0
  7 21  1  0  0  0  0
  8  9  1  0  0  0  0
  8 22  1  0  0  0  0
  9 10  1  0  0  0  0
  9 11  2  0  0  0  0
 11 12  1  0  0  0  0
 11 23  1  0  0  0  0
 12 24  1  0  0  0  0
 13 14  1  0  0  0  0
 13 25  1  0  0  0  0
 14 15  1  0  0  0  0
 14 19  1  0  0  0  0
 14 26  1  0  0  0  0
 15 16  1  0  0  0  0
 15 27  1  0  0  0  0
 15 28  1  0  0  0  0
 16 17  1  0  0  0  0
 16 29  1  0  0  0  0
 16 30  1  0  0  0  0
 17 18  1  0  0  0  0
 17 31  1  0  0  0  0
 17 32  1  0  0  0  0
 18 19  1  0  0  0  0
 18 33  1  0  0  0  0
 18 34  1  0  0  0  0
 19 35  1  0  0  0  0
 19 36  1  0  0  0  0
M  END
>  <Energy>
-67.2561

$$$$

 OpenBabel04232614443D

 37 39  0  0  0  0  0  0  0  0999 V2000
    1.0420   -0.0269   -0.3812 C   0  0  0  0  0  0  0  0  0  0  0  0
    2.5045   -0.3820   -0.3027 C   0  0  0  0  0  0  0  0  0  0  0  0
    2.8686   -1.4200    0.2388 O   0  0  0  0  0  0  0  0  0  0  0  0
    3.3101    0.5794   -0.8871 N   0  0  0  0  0  0  0  0  0  0  0  0
    4.7160    0.5426   -1.0062 C   0  0  0  0  0  0  0  0  0  0  0  0
    5.4815   -0.6163   -0.7765 C   0  0  0  0  0  0  0  0  0  0  0  0
    6.8813   -0.6020   -0.8654 C   0  0  0  0  0  0  0  0  0  0  0  0
    7.5103    0.5860   -1.1812 C   0  0  0  0  0  0  0  0  0  0  0  0
    6.7438    1.7442   -1.4341 C   0  0  0  0  0  0  0  0  0  0  0  0
    5.3582    1.7339   -1.3674 C   0  0  0  0  0  0  0  0  0  0  0  0
    7.6502    2.9176   -1.7384 C   0  0  0  0  0  0  0  0  0  0  0  0
    9.0205    2.2838   -1.6306 C   0  0  0  0  0  0  0  0  0  0  0  0
   10.2477    2.9030   -1.8054 C   0  0  0  0  0  0  0  0  0  0  0  0
   11.4103    2.1463   -1.6520 C   0  0  0  0  0  0  0  0  0  0  0  0
   12.7092    2.6827   -1.8123 N   0  0  0  0  0  0  0  0  0  0  0  0
   13.0351    3.9875   -2.1419 C   0  0  0  0  0  0  0  0  0  0  0  0
   14.5210    4.2286   -2.2398 C   0  0  0  0  0  0  0  0  0  0  0  0
   12.2567    4.9136   -2.3481 O   0  0  0  0  0  0  0  0  0  0  0  0
   11.3049    0.7762   -1.3218 C   0  0  0  0  0  0  0  0  0  0  0  0
   10.0564    0.1558   -1.1462 C   0  0  0  0  0  0  0  0  0  0  0  0
    8.9125    0.9202   -1.3042 C   0  0  0  0  0  0  0  0  0  0  0  0
    0.4644   -0.7303    0.2260 H   0  0  0  0  0  0  0  0  0  0  0  0
    0.7039   -0.0934   -1.4187 H   0  0  0  0  0  0  0  0  0  0  0  0
    0.8721    0.9821    0.0046 H   0  0  0  0  0  0  0  0  0  0  0  0
    2.8613    1.4427   -1.1662 H   0  0  0  0  0  0  0  0  0  0  0  0
    5.0058   -1.5617   -0.5306 H   0  0  0  0  0  0  0  0  0  0  0  0
    7.4451   -1.5089   -0.6769 H   0  0  0  0  0  0  0  0  0  0  0  0
    4.8036    2.6463   -1.5599 H   0  0  0  0  0  0  0  0  0  0  0  0
    7.5307    3.7027   -0.9864 H   0  0  0  0  0  0  0  0  0  0  0  0
    7.4763    3.2960   -2.7495 H   0  0  0  0  0  0  0  0  0  0  0  0
   10.2647    3.9566   -2.0529 H   0  0  0  0  0  0  0  0  0  0  0  0
   13.4731    2.0346   -1.6733 H   0  0  0  0  0  0  0  0  0  0  0  0
   15.1045    3.3210   -2.0671 H   0  0  0  0  0  0  0  0  0  0  0  0
   14.8071    4.9758   -1.4944 H   0  0  0  0  0  0  0  0  0  0  0  0
   14.7513    4.6038   -3.2410 H   0  0  0  0  0  0  0  0  0  0  0  0
   12.1981    0.1693   -1.1953 H   0  0  0  0  0  0  0  0  0  0  0  0
    9.9974   -0.8960   -0.8893 H   0  0  0  0  0  0  0  0  0  0  0  0
  1  2  1  0  0  0  0
  1 22  1  0  0  0  0
  1 23  1  0  0  0  0
  1 24  1  0  0  0  0
  2  3  2  0  0  0  0
  2  4  1  0  0  0  0
  4  5  1  0  0  0  0
  4 25  1  0  0  0  0
  5  6  1  0  0  0  0
  5 10  2  0  0  0  0
  6  7  2  0  0  0  0
  6 26  1  0  0  0  0
  7  8  1  0  0  0  0
  7 27  1  0  0  0  0
  8  9  2  0  0  0  0
  8 21  1  0  0  0  0
  9 10  1  0  0  0  0
  9 11  1  0  0  0  0
 10 28  1  0  0  0  0
 11 12  1  0  0  0  0
 11 29  1  0  0  0  0
 11 30  1  0  0  0  0
 12 13  1  0  0  0  0
 12 21  2  0  0  0  0
 13 14  2  0  0  0  0
 13 31  1  0  0  0  0
 14 15  1  0  0  0  0
 14 19  1  0  0  0  0
 15 16  1  0  0  0  0
 15 32  1  0  0  0  0
 16 17  1  0  0  0  0
 16 18  2  0  0  0  0
 17 33  1  0  0  0  0
 17 34  1  0  0  0  0
 17 35  1  0  0  0  0
 19 20  2  0  0  0  0
 19 36  1  0  0  0  0
 20 21  1  0  0  0  0
 20 37  1  0  0  0  0
M  END
>  <Energy>
16.1725

$$$$

 OpenBabel04232614443D

 36 38  0  0  0  0  0  0  0  0999 V2000
    1.3096   -0.4514   -0.7816 C   0  0  0  0  0  0  0  0  0  0  0  0
    2.4257    0.1313   -0.1180 O   0  0  0  0  0  0  0  0  0  0  0  0
    3.0922   -0.6542    0.7818 C   0  0  0  0  0  0  0  0  0  0  0  0
    2.7496   -1.9568    1.1415 C   0  0  0  0  0  0  0  0  0  0  0  0
    3.5229   -2.6534    2.0776 C   0  0  0  0  0  0  0  0  0  0  0  0
    3.1427   -3.9203    2.4212 O   0  0  0  0  0  0  0  0  0  0  0  0
    4.6509   -2.0573    2.6598 C   0  0  0  0  0  0  0  0  0  0  0  0
    5.5312   -2.7733    3.6399 C   0  0  0  0  0  0  0  0  0  0  0  0
    5.3715   -3.9550    3.9312 O   0  0  0  0  0  0  0  0  0  0  0  0
    6.6592   -1.9982    4.2523 C   0  0  0  0  0  0  0  0  0  0  0  0
    7.5672   -2.6035    5.2319 C   0  0  0  0  0  0  0  0  0  0  0  0
    7.2876   -2.5353    6.6012 C   0  0  0  0  0  0  0  0  0  0  0  0
    8.1663   -3.1029    7.5284 C   0  0  0  0  0  0  0  0  0  0  0  0
    9.3326   -3.7467    7.0981 C   0  0  0  0  0  0  0  0  0  0  0  0
   10.2884   -4.3540    8.0812 C   0  0  0  0  0  0  0  0  0  0  0  0
    9.6104   -3.8106    5.7272 C   0  0  0  0  0  0  0  0  0  0  0  0
    8.7336   -3.2449    4.8002 C   0  0  0  0  0  0  0  0  0  0  0  0
    6.8442   -0.7333    3.8468 C   0  0  0  0  0  0  0  0  0  0  0  0
    6.0695   -0.0889    2.9244 N   0  0  0  0  0  0  0  0  0  0  0  0
    4.9891   -0.7357    2.3079 C   0  0  0  0  0  0  0  0  0  0  0  0
    4.2035   -0.0477    1.3746 C   0  0  0  0  0  0  0  0  0  0  0  0
    0.9098    0.2900   -1.4797 H   0  0  0  0  0  0  0  0  0  0  0  0
    0.5165   -0.7011   -0.0694 H   0  0  0  0  0  0  0  0  0  0  0  0
    1.6099   -1.3293   -1.3634 H   0  0  0  0  0  0  0  0  0  0  0  0
    1.8829   -2.4430    0.7092 H   0  0  0  0  0  0  0  0  0  0  0  0
    2.3487   -4.1888    1.9352 H   0  0  0  0  0  0  0  0  0  0  0  0
    6.3793   -2.0522    6.9533 H   0  0  0  0  0  0  0  0  0  0  0  0
    7.9270   -3.0458    8.5873 H   0  0  0  0  0  0  0  0  0  0  0  0
    9.8858   -4.3322    9.0992 H   0  0  0  0  0  0  0  0  0  0  0  0
   11.2326   -3.8000    8.0764 H   0  0  0  0  0  0  0  0  0  0  0  0
   10.4837   -5.4000    7.8235 H   0  0  0  0  0  0  0  0  0  0  0  0
   10.5081   -4.3117    5.3721 H   0  0  0  0  0  0  0  0  0  0  0  0
    8.9582   -3.3189    3.7389 H   0  0  0  0  0  0  0  0  0  0  0  0
    7.6555   -0.1238    4.2387 H   0  0  0  0  0  0  0  0  0  0  0  0
    6.3581    0.8244    2.5942 H   0  0  0  0  0  0  0  0  0  0  0  0
    4.4510    0.9746    1.1005 H   0  0  0  0  0  0  0  0  0  0  0  0
  1  2  1  0  0  0  0
  1 22  1  0  0  0  0
  1 23  1  0  0  0  0
  1 24  1  0  0  0  0
  2  3  1  0  0  0  0
  3  4  1  0  0  0  0
  3 21  2  0  0  0  0
  4  5  2  0  0  0  0
  4 25  1  0  0  0  0
  5  6  1  0  0  0  0
  5  7  1  0  0  0  0
  6 26  1  0  0  0  0
  7  8  1  0  0  0  0
  7 20  2  0  0  0  0
  8  9  2  0  0  0  0
  8 10  1  0  0  0  0
 10 11  1  0  0  0  0
 10 18  2  0  0  0  0
 11 12  1  0  0  0  0
 11 17  2  0  0  0  0
 12 13  2  0  0  0  0
 12 27  1  0  0  0  0
 13 14  1  0  0  0  0
 13 28  1  0  0  0  0
 14 15  1  0  0  0  0
 14 16  2  0  0  0  0
 15 29  1  0  0  0  0
 15 30  1  0  0  0  0
 15 31  1  0  0  0  0
 16 17  1  0  0  0  0
 16 32  1  0  0  0  0
 17 33  1  0  0  0  0
 18 19  1  0  0  0  0
 18 34  1  0  0  0  0
 19 20  1  0  0  0  0
 19 35  1  0  0  0  0
 20 21  1  0  0  0  0
 21 36  1  0  0  0  0
M  END
>  <Energy>
91.6787

$$$$

 OpenBabel04232614443D

 36 37  0  0  0  0  0  0  0  0999 V2000
    2.6134    1.7004    2.8459 O   0  0  0  0  0  0  0  0  0  0  0  0
    2.2308    1.2015    1.7903 C   0  0  0  0  0  0  0  0  0  0  0  0
    0.9204    0.8294    1.5354 N   0  0  0  0  0  0  0  0  0  0  0  0
   -0.1072    1.0381    2.4884 C   0  0  0  0  0  0  0  0  0  0  0  0
   -0.2135    2.2525    3.1765 C   0  0  0  0  0  0  0  0  0  0  0  0
   -1.2152    2.4380    4.1305 C   0  0  0  0  0  0  0  0  0  0  0  0
   -2.1118    1.4086    4.4113 C   0  0  0  0  0  0  0  0  0  0  0  0
   -2.0202    0.1968    3.7243 C   0  0  0  0  0  0  0  0  0  0  0  0
   -1.0324    0.0186    2.7537 C   0  0  0  0  0  0  0  0  0  0  0  0
   -0.9294   -1.5085    1.9480 Cl  0  0  0  0  0  0  0  0  0  0  0  0
    3.0653    0.8631    0.7271 N   0  0  0  0  0  0  0  0  0  0  0  0
    4.4842    0.9830    0.8113 N   0  0  0  0  0  0  0  0  0  0  0  0
    4.9126    2.3276    1.2196 C   0  0  0  0  0  0  0  0  0  0  0  0
    6.2541    2.7231    0.6019 C   0  0  0  0  0  0  0  0  0  0  0  0
    7.4834    2.0912    1.2445 C   0  0  0  0  0  0  0  0  0  0  0  0
    7.4761    0.5675    1.2768 C   0  0  0  0  0  0  0  0  0  0  0  0
    6.4177    0.0198    2.2242 C   0  0  0  0  0  0  0  0  0  0  0  0
    5.0285   -0.1308    1.6041 C   0  0  0  0  0  0  0  0  0  0  0  0
    0.8448   -0.0312    1.0044 H   0  0  0  0  0  0  0  0  0  0  0  0
    0.4812    3.0662    2.9772 H   0  0  0  0  0  0  0  0  0  0  0  0
   -1.2857    3.3844    4.6619 H   0  0  0  0  0  0  0  0  0  0  0  0
   -2.8782    1.5481    5.1699 H   0  0  0  0  0  0  0  0  0  0  0  0
   -2.7109   -0.6078    3.9608 H   0  0  0  0  0  0  0  0  0  0  0  0
    2.6594    0.8410   -0.2019 H   0  0  0  0  0  0  0  0  0  0  0  0
    4.9338    2.4484    2.3105 H   0  0  0  0  0  0  0  0  0  0  0  0
    4.1845    3.0596    0.8425 H   0  0  0  0  0  0  0  0  0  0  0  0
    6.3588    3.8126    0.6868 H   0  0  0  0  0  0  0  0  0  0  0  0
    6.2473    2.5038   -0.4732 H   0  0  0  0  0  0  0  0  0  0  0  0
    7.5970    2.4784    2.2653 H   0  0  0  0  0  0  0  0  0  0  0  0
    8.3704    2.4250    0.6925 H   0  0  0  0  0  0  0  0  0  0  0  0
    8.4588    0.2387    1.6372 H   0  0  0  0  0  0  0  0  0  0  0  0
    7.3558    0.1552    0.2685 H   0  0  0  0  0  0  0  0  0  0  0  0
    6.3586    0.6376    3.1289 H   0  0  0  0  0  0  0  0  0  0  0  0
    6.7350   -0.9754    2.5614 H   0  0  0  0  0  0  0  0  0  0  0  0
    4.3511   -0.3872    2.4303 H   0  0  0  0  0  0  0  0  0  0  0  0
    5.0419   -1.0124    0.9496 H   0  0  0  0  0  0  0  0  0  0  0  0
  1  2  2  0  0  0  0
  2  3  1  0  0  0  0
  2 11  1  0  0  0  0
  3  4  1  0  0  0  0
  3 19  1  0  0  0  0
  4  5  1  0  0  0  0
  4  9  2  0  0  0  0
  5  6  2  0  0  0  0
  5 20  1  0  0  0  0
  6  7  1  0  0  0  0
  6 21  1  0  0  0  0
  7  8  2  0  0  0  0
  7 22  1  0  0  0  0
  8  9  1  0  0  0  0
  8 23  1  0  0  0  0
  9 10  1  0  0  0  0
 11 12  1  0  0  0  0
 11 24  1  0  0  0  0
 12 13  1  0  0  0  0
 12 18  1  0  0  0  0
 13 14  1  0  0  0  0
 13 25  1  0  0  0  0
 13 26  1  0  0  0  0
 14 15  1  0  0  0  0
 14 27  1  0  0  0  0
 14 28  1  0  0  0  0
 15 16  1  0  0  0  0
 15 29  1  0  0  0  0
 15 30  1  0  0  0  0
 16 17  1  0  0  0  0
 16 31  1  0  0  0  0
 16 32  1  0  0  0  0
 17 18  1  0  0  0  0
 17 33  1  0  0  0  0
 17 34  1  0  0  0  0
 18 35  1  0  0  0  0
 18 36  1  0  0  0  0
M  END
>  <Energy>
29.1018

$$$$

 OpenBabel04232614443D

 36 38  0  0  0  0  0  0  0  0999 V2000
    2.8842    0.0246    0.1348 C   0  0  0  0  0  0  0  0  0  0  0  0
    1.3877    0.0704    0.0512 C   0  0  0  0  0  0  0  0  0  0  0  0
    0.7013    1.2853    0.0113 C   0  0  0  0  0  0  0  0  0  0  0  0
   -0.6956    1.3051   -0.0081 C   0  0  0  0  0  0  0  0  0  0  0  0
   -1.4428    0.1149    0.0047 C   0  0  0  0  0  0  0  0  0  0  0  0
   -2.9389    0.2081    0.1236 C   0  0  0  0  0  0  0  0  0  0  0  0
   -0.7543   -1.1167   -0.0148 C   0  0  0  0  0  0  0  0  0  0  0  0
   -1.4289   -2.3751   -0.0519 N   0  0  0  0  0  0  0  0  0  0  0  0
   -2.1962   -2.7732   -1.1370 C   0  0  0  0  0  0  0  0  0  0  0  0
   -2.3015   -1.9155   -2.3838 C   0  0  0  0  0  0  0  0  0  0  0  0
   -2.8210   -3.9085   -1.1979 N   0  0  0  0  0  0  0  0  0  0  0  0
   -2.6682   -4.8233   -0.1544 C   0  0  0  0  0  0  0  0  0  0  0  0
   -3.2947   -6.0682   -0.2534 C   0  0  0  0  0  0  0  0  0  0  0  0
   -3.1084   -7.0411    0.7327 C   0  0  0  0  0  0  0  0  0  0  0  0
   -2.2968   -6.7711    1.8332 C   0  0  0  0  0  0  0  0  0  0  0  0
   -1.6762   -5.5280    1.9478 C   0  0  0  0  0  0  0  0  0  0  0  0
   -1.8645   -4.5629    0.9494 C   0  0  0  0  0  0  0  0  0  0  0  0
   -1.2013   -3.2467    1.0223 C   0  0  0  0  0  0  0  0  0  0  0  0
   -0.5076   -3.0053    2.0095 O   0  0  0  0  0  0  0  0  0  0  0  0
    0.6536   -1.1199    0.0332 C   0  0  0  0  0  0  0  0  0  0  0  0
    3.3200    1.0282    0.1158 H   0  0  0  0  0  0  0  0  0  0  0  0
    3.2949   -0.5361   -0.7128 H   0  0  0  0  0  0  0  0  0  0  0  0
    3.1930   -0.4587    1.0673 H   0  0  0  0  0  0  0  0  0  0  0  0
    1.2456    2.2258    0.0209 H   0  0  0  0  0  0  0  0  0  0  0  0
   -1.1992    2.2688   -0.0010 H   0  0  0  0  0  0  0  0  0  0  0  0
   -3.2593    1.2400    0.3057 H   0  0  0  0  0  0  0  0  0  0  0  0
   -3.2932   -0.3915    0.9681 H   0  0  0  0  0  0  0  0  0  0  0  0
   -3.4349   -0.1200   -0.7905 H   0  0  0  0  0  0  0  0  0  0  0  0
   -1.6562   -1.0395   -2.3909 H   0  0  0  0  0  0  0  0  0  0  0  0
   -3.3420   -1.6047   -2.5171 H   0  0  0  0  0  0  0  0  0  0  0  0
   -2.0256   -2.5301   -3.2491 H   0  0  0  0  0  0  0  0  0  0  0  0
   -3.9175   -6.2854   -1.1177 H   0  0  0  0  0  0  0  0  0  0  0  0
   -3.5896   -8.0109    0.6339 H   0  0  0  0  0  0  0  0  0  0  0  0
   -2.1431   -7.5294    2.5975 H   0  0  0  0  0  0  0  0  0  0  0  0
   -1.0400   -5.3156    2.8045 H   0  0  0  0  0  0  0  0  0  0  0  0
    1.1883   -2.0689    0.0621 H   0  0  0  0  0  0  0  0  0  0  0  0
  1  2  1  0  0  0  0
  1 21  1  0  0  0  0
  1 22  1  0  0  0  0
  1 23  1  0  0  0  0
  2  3  1  0  0  0  0
  2 20  2  0  0  0  0
  3  4  2  0  0  0  0
  3 24  1  0  0  0  0
  4  5  1  0  0  0  0
  4 25  1  0  0  0  0
  5  6  1  0  0  0  0
  5  7  2  0  0  0  0
  6 26  1  0  0  0  0
  6 27  1  0  0  0  0
  6 28  1  0  0  0  0
  7  8  1  0  0  0  0
  7 20  1  0  0  0  0
  8  9  1  0  0  0  0
  8 18  1  0  0  0  0
  9 10  1  0  0  0  0
  9 11  2  0  0  0  0
 10 29  1  0  0  0  0
 10 30  1  0  0  0  0
 10 31  1  0  0  0  0
 11 12  1  0  0  0  0
 12 13  1  0  0  0  0
 12 17  2  0  0  0  0
 13 14  2  0  0  0  0
 13 32  1  0  0  0  0
 14 15  1  0  0  0  0
 14 33  1  0  0  0  0
 15 16  2  0  0  0  0
 15 34  1  0  0  0  0
 16 17  1  0  0  0  0
 16 35  1  0  0  0  0
 17 18  1  0  0  0  0
 18 19  2  0  0  0  0
 20 36  1  0  0  0  0
M  END
>  <Energy>
59.8504

$$$$

 OpenBabel04232614443D

 36 38  0  0  0  0  0  0  0  0999 V2000
    2.5430    1.1049   -0.0620 C   0  0  0  0  0  0  0  0  0  0  0  0
    1.2574    0.3310   -0.0601 C   0  0  0  0  0  0  0  0  0  0  0  0
    1.1856   -0.9524   -0.6080 C   0  0  0  0  0  0  0  0  0  0  0  0
   -0.0206   -1.6545   -0.6044 C   0  0  0  0  0  0  0  0  0  0  0  0
   -1.1700   -1.0814   -0.0429 C   0  0  0  0  0  0  0  0  0  0  0  0
   -2.3771   -1.8268   -0.0525 N   0  0  0  0  0  0  0  0  0  0  0  0
   -2.7203   -2.6646    0.9958 C   0  0  0  0  0  0  0  0  0  0  0  0
   -1.7794   -2.8497    2.1687 C   0  0  0  0  0  0  0  0  0  0  0  0
   -3.8342   -3.3263    1.0454 N   0  0  0  0  0  0  0  0  0  0  0  0
   -4.7697   -3.1456    0.0224 C   0  0  0  0  0  0  0  0  0  0  0  0
   -6.0196   -3.7581    0.1408 C   0  0  0  0  0  0  0  0  0  0  0  0
   -7.0106   -3.5466   -0.8211 C   0  0  0  0  0  0  0  0  0  0  0  0
   -6.7510   -2.7331   -1.9235 C   0  0  0  0  0  0  0  0  0  0  0  0
   -5.4994   -2.1339   -2.0633 C   0  0  0  0  0  0  0  0  0  0  0  0
   -4.5200   -2.3389   -1.0838 C   0  0  0  0  0  0  0  0  0  0  0  0
   -3.2114   -1.6656   -1.1621 C   0  0  0  0  0  0  0  0  0  0  0  0
   -2.9423   -1.0073   -2.1663 O   0  0  0  0  0  0  0  0  0  0  0  0
   -1.1186    0.2104    0.5134 C   0  0  0  0  0  0  0  0  0  0  0  0
   -2.3139    0.9006    1.1086 C   0  0  0  0  0  0  0  0  0  0  0  0
    0.1019    0.9060    0.4881 C   0  0  0  0  0  0  0  0  0  0  0  0
    3.3635    0.5203   -0.4909 H   0  0  0  0  0  0  0  0  0  0  0  0
    2.8228    1.3724    0.9622 H   0  0  0  0  0  0  0  0  0  0  0  0
    2.4331    2.0186   -0.6548 H   0  0  0  0  0  0  0  0  0  0  0  0
    2.0666   -1.4130   -1.0503 H   0  0  0  0  0  0  0  0  0  0  0  0
   -0.0625   -2.6464   -1.0486 H   0  0  0  0  0  0  0  0  0  0  0  0
   -0.9326   -2.1660    2.1861 H   0  0  0  0  0  0  0  0  0  0  0  0
   -1.4018   -3.8764    2.1577 H   0  0  0  0  0  0  0  0  0  0  0  0
   -2.3471   -2.7046    3.0942 H   0  0  0  0  0  0  0  0  0  0  0  0
   -6.2264   -4.3879    1.0027 H   0  0  0  0  0  0  0  0  0  0  0  0
   -7.9878   -4.0086   -0.7020 H   0  0  0  0  0  0  0  0  0  0  0  0
   -7.5254   -2.5577   -2.6665 H   0  0  0  0  0  0  0  0  0  0  0  0
   -5.2968   -1.4930   -2.9189 H   0  0  0  0  0  0  0  0  0  0  0  0
   -3.1746    0.2375    1.2261 H   0  0  0  0  0  0  0  0  0  0  0  0
   -2.6166    1.7384    0.4725 H   0  0  0  0  0  0  0  0  0  0  0  0
   -2.0664    1.2812    2.1061 H   0  0  0  0  0  0  0  0  0  0  0  0
    0.1518    1.9143    0.8979 H   0  0  0  0  0  0  0  0  0  0  0  0
  1  2  1  0  0  0  0
  1 21  1  0  0  0  0
  1 22  1  0  0  0  0
  1 23  1  0  0  0  0
  2  3  1  0  0  0  0
  2 20  2  0  0  0  0
  3  4  2  0  0  0  0
  3 24  1  0  0  0  0
  4  5  1  0  0  0  0
  4 25  1  0  0  0  0
  5  6  1  0  0  0  0
  5 18  2  0  0  0  0
  6  7  1  0  0  0  0
  6 16  1  0  0  0  0
  7  8  1  0  0  0  0
  7  9  2  0  0  0  0
  8 26  1  0  0  0  0
  8 27  1  0  0  0  0
  8 28  1  0  0  0  0
  9 10  1  0  0  0  0
 10 11  1  0  0  0  0
 10 15  2  0  0  0  0
 11 12  2  0  0  0  0
 11 29  1  0  0  0  0
 12 13  1  0  0  0  0
 12 30  1  0  0  0  0
 13 14  2  0  0  0  0
 13 31  1  0  0  0  0
 14 15  1  0  0  0  0
 14 32  1  0  0  0  0
 15 16  1  0  0  0  0
 16 17  2  0  0  0  0
 18 19  1  0  0  0  0
 18 20  1  0  0  0  0
 19 33  1  0  0  0  0
 19 34  1  0  0  0  0
 19 35  1  0  0  0  0
 20 36  1  0  0  0  0
M  END
>  <Energy>
60.4631

$$$$

 OpenBabel04232614443D

 33 35  0  0  0  0  0  0  0  0999 V2000
    1.0754    0.6511    0.1481 C   0  0  0  0  0  0  0  0  0  0  0  0
    2.4573    0.1071   -0.0513 C   0  0  0  0  0  0  0  0  0  0  0  0
    2.8889   -0.3022   -1.1204 O   0  0  0  0  0  0  0  0  0  0  0  0
    3.1452    0.1616    1.1593 O   0  0  0  0  0  0  0  0  0  0  0  0
    4.5447    0.0715    1.0923 C   0  0  0  0  0  0  0  0  0  0  0  0
    5.2032   -0.7086    2.0445 C   0  0  0  0  0  0  0  0  0  0  0  0
    6.6055   -0.7260    2.0774 C   0  0  0  0  0  0  0  0  0  0  0  0
    7.3398    0.0405    1.1655 C   0  0  0  0  0  0  0  0  0  0  0  0
    8.7943    0.1046    1.1790 C   0  0  0  0  0  0  0  0  0  0  0  0
    9.4431    0.8596    0.2775 C   0  0  0  0  0  0  0  0  0  0  0  0
   10.9093    0.9641    0.3355 C   0  0  0  0  0  0  0  0  0  0  0  0
   11.7196    0.0130   -0.2953 C   0  0  0  0  0  0  0  0  0  0  0  0
   13.1079    0.1641   -0.2930 C   0  0  0  0  0  0  0  0  0  0  0  0
   13.6916    1.2599    0.3425 C   0  0  0  0  0  0  0  0  0  0  0  0
   12.8907    2.2041    0.9828 C   0  0  0  0  0  0  0  0  0  0  0  0
   11.5031    2.0566    0.9814 C   0  0  0  0  0  0  0  0  0  0  0  0
    8.7116    1.6266   -0.7709 C   0  0  0  0  0  0  0  0  0  0  0  0
    9.2906    2.2769   -1.6368 O   0  0  0  0  0  0  0  0  0  0  0  0
    7.3268    1.5905   -0.7167 O   0  0  0  0  0  0  0  0  0  0  0  0
    6.6501    0.8070    0.2306 C   0  0  0  0  0  0  0  0  0  0  0  0
    5.2638    0.8474    0.1887 C   0  0  0  0  0  0  0  0  0  0  0  0
    0.5936    0.7741   -0.8265 H   0  0  0  0  0  0  0  0  0  0  0  0
    1.1346    1.6372    0.6181 H   0  0  0  0  0  0  0  0  0  0  0  0
    0.4854   -0.0343    0.7589 H   0  0  0  0  0  0  0  0  0  0  0  0
    4.6349   -1.2910    2.7642 H   0  0  0  0  0  0  0  0  0  0  0  0
    7.1105   -1.3316    2.8270 H   0  0  0  0  0  0  0  0  0  0  0  0
    9.3263   -0.4455    1.9484 H   0  0  0  0  0  0  0  0  0  0  0  0
   11.2771   -0.8319   -0.8176 H   0  0  0  0  0  0  0  0  0  0  0  0
   13.7338   -0.5632   -0.8038 H   0  0  0  0  0  0  0  0  0  0  0  0
   14.7713    1.3854    0.3275 H   0  0  0  0  0  0  0  0  0  0  0  0
   13.3445    3.0651    1.4668 H   0  0  0  0  0  0  0  0  0  0  0  0
   10.8888    2.8145    1.4631 H   0  0  0  0  0  0  0  0  0  0  0  0
    4.7674    1.4812   -0.5392 H   0  0  0  0  0  0  0  0  0  0  0  0
  1  2  1  0  0  0  0
  1 22  1  0  0  0  0
  1 23  1  0  0  0  0
  1 24  1  0  0  0  0
  2  3  2  0  0  0  0
  2  4  1  0  0  0  0
  4  5  1  0  0  0  0
  5  6  1  0  0  0  0
  5 21  2  0  0  0  0
  6  7  2  0  0  0  0
  6 25  1  0  0  0  0
  7  8  1  0  0  0  0
  7 26  1  0  0  0  0
  8  9  1  0  0  0  0
  8 20  2  0  0  0  0
  9 10  2  0  0  0  0
  9 27  1  0  0  0  0
 10 11  1  0  0  0  0
 10 17  1  0  0  0  0
 11 12  1  0  0  0  0
 11 16  2  0  0  0  0
 12 13  2  0  0  0  0
 12 28  1  0  0  0  0
 13 14  1  0  0  0  0
 13 29  1  0  0  0  0
 14 15  2  0  0  0  0
 14 30  1  0  0  0  0
 15 16  1  0  0  0  0
 15 31  1  0  0  0  0
 16 32  1  0  0  0  0
 17 18  2  0  0  0  0
 17 19  1  0  0  0  0
 19 20  1  0  0  0  0
 20 21  1  0  0  0  0
 21 33  1  0  0  0  0
M  END
>  <Energy>
78.8529

$$$$

 OpenBabel04232614443D

 32 35  0  0  0  0  0  0  0  0999 V2000
    1.0588    0.4845    0.0266 C   0  0  0  0  0  0  0  0  0  0  0  0
    2.4877    0.1060   -0.0177 C   0  0  0  0  0  0  0  0  0  0  0  0
    3.4704    1.0151    0.1195 N   0  0  0  0  0  0  0  0  0  0  0  0
    4.6508    0.3182   -0.0350 N   0  0  0  0  0  0  0  0  0  0  0  0
    5.8903    1.0015   -0.0397 C   0  0  0  0  0  0  0  0  0  0  0  0
    6.0061    2.2158    0.6534 C   0  0  0  0  0  0  0  0  0  0  0  0
    7.2229    2.9019    0.6659 C   0  0  0  0  0  0  0  0  0  0  0  0
    8.3113    2.4041   -0.0484 C   0  0  0  0  0  0  0  0  0  0  0  0
    8.1906    1.2122   -0.7621 C   0  0  0  0  0  0  0  0  0  0  0  0
    6.9885    0.4993   -0.7459 C   0  0  0  0  0  0  0  0  0  0  0  0
    4.3935   -1.0158   -0.1680 C   0  0  0  0  0  0  0  0  0  0  0  0
    3.0253   -1.1620   -0.1512 C   0  0  0  0  0  0  0  0  0  0  0  0
    2.7357   -2.5562   -0.1976 C   0  0  0  0  0  0  0  0  0  0  0  0
    1.5206   -3.2063   -0.1629 C   0  0  0  0  0  0  0  0  0  0  0  0
    1.5473   -4.6044   -0.1333 C   0  0  0  0  0  0  0  0  0  0  0  0
    2.7663   -5.3152   -0.1366 C   0  0  0  0  0  0  0  0  0  0  0  0
    3.9951   -4.6473   -0.1802 C   0  0  0  0  0  0  0  0  0  0  0  0
    3.9593   -3.2683   -0.2128 C   0  0  0  0  0  0  0  0  0  0  0  0
    5.0811   -2.2763   -0.2100 C   0  0  0  0  0  0  0  0  0  0  0  0
    6.2725   -2.5345   -0.2165 O   0  0  0  0  0  0  0  0  0  0  0  0
    0.9216    1.5691    0.0421 H   0  0  0  0  0  0  0  0  0  0  0  0
    0.5816    0.0620    0.9190 H   0  0  0  0  0  0  0  0  0  0  0  0
    0.5388    0.0901   -0.8528 H   0  0  0  0  0  0  0  0  0  0  0  0
    5.1664    2.6181    1.2171 H   0  0  0  0  0  0  0  0  0  0  0  0
    7.3201    3.8244    1.2333 H   0  0  0  0  0  0  0  0  0  0  0  0
    9.2529    2.9472   -0.0533 H   0  0  0  0  0  0  0  0  0  0  0  0
    9.0331    0.8370   -1.3380 H   0  0  0  0  0  0  0  0  0  0  0  0
    6.9240   -0.4123   -1.3332 H   0  0  0  0  0  0  0  0  0  0  0  0
    0.5823   -2.6658   -0.1402 H   0  0  0  0  0  0  0  0  0  0  0  0
    0.6068   -5.1553   -0.0925 H   0  0  0  0  0  0  0  0  0  0  0  0
    2.7469   -6.4035   -0.0957 H   0  0  0  0  0  0  0  0  0  0  0  0
    4.9373   -5.1841   -0.1683 H   0  0  0  0  0  0  0  0  0  0  0  0
  1  2  1  0  0  0  0
  1 21  1  0  0  0  0
  1 22  1  0  0  0  0
  1 23  1  0  0  0  0
  2  3  2  0  0  0  0
  2 12  1  0  0  0  0
  3  4  1  0  0  0  0
  4  5  1  0  0  0  0
  4 11  1  0  0  0  0
  5  6  1  0  0  0  0
  5 10  2  0  0  0  0
  6  7  2  0  0  0  0
  6 24  1  0  0  0  0
  7  8  1  0  0  0  0
  7 25  1  0  0  0  0
  8  9  2  0  0  0  0
  8 26  1  0  0  0  0
  9 10  1  0  0  0  0
  9 27  1  0  0  0  0
 10 28  1  0  0  0  0
 11 12  2  0  0  0  0
 11 19  1  0  0  0  0
 12 13  1  0  0  0  0
 13 14  1  0  0  0  0
 13 18  2  0  0  0  0
 14 15  2  0  0  0  0
 14 29  1  0  0  0  0
 15 16  1  0  0  0  0
 15 30  1  0  0  0  0
 16 17  2  0  0  0  0
 16 31  1  0  0  0  0
 17 18  1  0  0  0  0
 17 32  1  0  0  0  0
 18 19  1  0  0  0  0
 19 20  2  0  0  0  0
M  END
>  <Energy>
85.8208

$$$$

 OpenBabel04232614443D

 34 36  0  0  0  0  0  0  0  0999 V2000
    0.9556   -0.2013   -0.0544 C   0  0  0  0  0  0  0  0  0  0  0  0
    2.4567    0.0360   -0.0377 C   0  0  0  0  0  0  0  0  0  0  0  0
    2.9815    0.2850   -1.4266 C   0  0  0  0  0  0  0  0  0  0  0  0
    3.3780   -0.7911   -2.1260 N   0  0  0  0  0  0  0  0  0  0  0  0
    3.8124   -0.6140   -3.3893 C   0  0  0  0  0  0  0  0  0  0  0  0
    4.3526   -2.0556   -4.2468 S   0  0  0  0  0  0  0  0  0  0  0  0
    3.8339    0.6588   -3.9718 C   0  0  0  0  0  0  0  0  0  0  0  0
    4.1796    1.2010   -5.2635 C   0  0  0  0  0  0  0  0  0  0  0  0
    4.0561    2.5764   -5.3083 C   0  0  0  0  0  0  0  0  0  0  0  0
    3.4819    3.2230   -3.8468 S   0  0  0  0  0  0  0  0  0  0  0  0
    3.4106    1.6782   -3.1276 C   0  0  0  0  0  0  0  0  0  0  0  0
    2.9749    1.5483   -1.8648 N   0  0  0  0  0  0  0  0  0  0  0  0
    4.3139    3.4352   -6.5061 C   0  0  0  0  0  0  0  0  0  0  0  0
    4.9732    2.6642   -7.5292 O   0  0  0  0  0  0  0  0  0  0  0  0
    4.4451    1.3405   -7.7566 C   0  0  0  0  0  0  0  0  0  0  0  0
    2.9728    1.3917   -8.2018 C   0  0  0  0  0  0  0  0  0  0  0  0
    5.2724    0.7297   -8.8960 C   0  0  0  0  0  0  0  0  0  0  0  0
    4.6411    0.4717   -6.4882 C   0  0  0  0  0  0  0  0  0  0  0  0
    0.5910   -0.3905    0.9600 H   0  0  0  0  0  0  0  0  0  0  0  0
    0.6966   -1.0654   -0.6759 H   0  0  0  0  0  0  0  0  0  0  0  0
    0.4210    0.6685   -0.4516 H   0  0  0  0  0  0  0  0  0  0  0  0
    2.9652   -0.8343    0.3922 H   0  0  0  0  0  0  0  0  0  0  0  0
    2.6922    0.8952    0.6006 H   0  0  0  0  0  0  0  0  0  0  0  0
    4.0612   -2.8917   -3.2423 H   0  0  0  0  0  0  0  0  0  0  0  0
    4.9730    4.2723   -6.2559 H   0  0  0  0  0  0  0  0  0  0  0  0
    3.3830    3.8441   -6.9131 H   0  0  0  0  0  0  0  0  0  0  0  0
    2.8575    2.0389   -9.0783 H   0  0  0  0  0  0  0  0  0  0  0  0
    2.3153    1.7999   -7.4278 H   0  0  0  0  0  0  0  0  0  0  0  0
    2.5996    0.3933   -8.4543 H   0  0  0  0  0  0  0  0  0  0  0  0
    5.1961    1.3369   -9.8047 H   0  0  0  0  0  0  0  0  0  0  0  0
    4.9428   -0.2888   -9.1291 H   0  0  0  0  0  0  0  0  0  0  0  0
    6.3363    0.6960   -8.6337 H   0  0  0  0  0  0  0  0  0  0  0  0
    5.7069    0.2484   -6.3484 H   0  0  0  0  0  0  0  0  0  0  0  0
    4.1069   -0.4745   -6.6160 H   0  0  0  0  0  0  0  0  0  0  0  0
  1  2  1  0  0  0  0
  1 19  1  0  0  0  0
  1 20  1  0  0  0  0
  1 21  1  0  0  0  0
  2  3  1  0  0  0  0
  2 22  1  0  0  0  0
  2 23  1  0  0  0  0
  3  4  1  0  0  0  0
  3 12  2  0  0  0  0
  4  5  2  0  0  0  0
  5  6  1  0  0  0  0
  5  7  1  0  0  0  0
  6 24  1  0  0  0  0
  7  8  1  0  0  0  0
  7 11  2  0  0  0  0
  8  9  2  0  0  0  0
  8 18  1  0  0  0  0
  9 10  1  0  0  0  0
  9 13  1  0  0  0  0
 10 11  1  0  0  0  0
 11 12  1  0  0  0  0
 13 14  1  0  0  0  0
 13 25  1  0  0  0  0
 13 26  1  0  0  0  0
 14 15  1  0  0  0  0
 15 16  1  0  0  0  0
 15 17  1  0  0  0  0
 15 18  1  0  0  0  0
 16 27  1  0  0  0  0
 16 28  1  0  0  0  0
 16 29  1  0  0  0  0
 17 30  1  0  0  0  0
 17 31  1  0  0  0  0
 17 32  1  0  0  0  0
 18 33  1  0  0  0  0
 18 34  1  0  0  0  0
M  END
>  <Energy>
19.3996

$$$$

 OpenBabel04232614443D

 37 39  0  0  0  0  0  0  0  0999 V2000
    3.8351   -0.0964    2.7113 C   0  0  0  0  0  0  0  0  0  0  0  0
    3.8604   -0.0199    1.2144 C   0  0  0  0  0  0  0  0  0  0  0  0
    3.8396   -1.1956    0.4323 C   0  0  0  0  0  0  0  0  0  0  0  0
    3.8614   -1.1539   -0.9661 C   0  0  0  0  0  0  0  0  0  0  0  0
    3.9079    0.0679   -1.6335 C   0  0  0  0  0  0  0  0  0  0  0  0
    3.9290    0.1551   -2.9944 O   0  0  0  0  0  0  0  0  0  0  0  0
    3.9322    1.2186   -0.8581 C   0  0  0  0  0  0  0  0  0  0  0  0
    3.9777    2.5461   -1.1931 N   0  0  0  0  0  0  0  0  0  0  0  0
    3.9922    3.2947   -0.0375 C   0  0  0  0  0  0  0  0  0  0  0  0
    4.0437    4.7595   -0.0273 C   0  0  0  0  0  0  0  0  0  0  0  0
    3.5107    5.4696    1.0492 C   0  0  0  0  0  0  0  0  0  0  0  0
    3.5388    6.8759    1.0733 C   0  0  0  0  0  0  0  0  0  0  0  0
    4.1001    7.6339    0.0334 C   0  0  0  0  0  0  0  0  0  0  0  0
    4.0845    9.0232    0.0129 N   0  0  0  0  0  0  0  0  0  0  0  0
    5.1814    9.7754   -0.5969 C   0  0  0  0  0  0  0  0  0  0  0  0
    3.2734    9.8023    0.9454 C   0  0  0  0  0  0  0  0  0  0  0  0
    4.6324    6.8945   -1.0358 C   0  0  0  0  0  0  0  0  0  0  0  0
    4.6142    5.4896   -1.0685 C   0  0  0  0  0  0  0  0  0  0  0  0
    3.9229    2.4998    1.0160 N   0  0  0  0  0  0  0  0  0  0  0  0
    3.9056    1.2118    0.5266 C   0  0  0  0  0  0  0  0  0  0  0  0
    3.8107   -1.1325    3.0628 H   0  0  0  0  0  0  0  0  0  0  0  0
    2.9468    0.4135    3.0973 H   0  0  0  0  0  0  0  0  0  0  0  0
    4.7288    0.3803    3.1263 H   0  0  0  0  0  0  0  0  0  0  0  0
    3.8070   -2.1675    0.9271 H   0  0  0  0  0  0  0  0  0  0  0  0
    3.8429   -2.0891   -1.5187 H   0  0  0  0  0  0  0  0  0  0  0  0
    3.9001   -0.7464   -3.3571 H   0  0  0  0  0  0  0  0  0  0  0  0
    3.9799    2.8998   -2.1346 H   0  0  0  0  0  0  0  0  0  0  0  0
    3.0580    4.9326    1.8811 H   0  0  0  0  0  0  0  0  0  0  0  0
    3.1137    7.3543    1.9500 H   0  0  0  0  0  0  0  0  0  0  0  0
    5.8338    9.1937   -1.2521 H   0  0  0  0  0  0  0  0  0  0  0  0
    5.8191   10.2097    0.1820 H   0  0  0  0  0  0  0  0  0  0  0  0
    4.7721   10.5979   -1.1941 H   0  0  0  0  0  0  0  0  0  0  0  0
    2.4284    9.2519    1.3686 H   0  0  0  0  0  0  0  0  0  0  0  0
    2.8380   10.6570    0.4145 H   0  0  0  0  0  0  0  0  0  0  0  0
    3.8884   10.1905    1.7638 H   0  0  0  0  0  0  0  0  0  0  0  0
    5.0494    7.3994   -1.9024 H   0  0  0  0  0  0  0  0  0  0  0  0
    5.0627    4.9936   -1.9250 H   0  0  0  0  0  0  0  0  0  0  0  0
  1  2  1  0  0  0  0
  1 21  1  0  0  0  0
  1 22  1  0  0  0  0
  1 23  1  0  0  0  0
  2  3  1  0  0  0  0
  2 20  2  0  0  0  0
  3  4  2  0  0  0  0
  3 24  1  0  0  0  0
  4  5  1  0  0  0  0
  4 25  1  0  0  0  0
  5  6  1  0  0  0  0
  5  7  2  0  0  0  0
  6 26  1  0  0  0  0
  7  8  1  0  0  0  0
  7 20  1  0  0  0  0
  8  9  1  0  0  0  0
  8 27  1  0  0  0  0
  9 10  1  0  0  0  0
  9 19  2  0  0  0  0
 10 11  1  0  0  0  0
 10 18  2  0  0  0  0
 11 12  2  0  0  0  0
 11 28  1  0  0  0  0
 12 13  1  0  0  0  0
 12 29  1  0  0  0  0
 13 14  1  0  0  0  0
 13 17  2  0  0  0  0
 14 15  1  0  0  0  0
 14 16  1  0  0  0  0
 15 30  1  0  0  0  0
 15 31  1  0  0  0  0
 15 32  1  0  0  0  0
 16 33  1  0  0  0  0
 16 34  1  0  0  0  0
 16 35  1  0  0  0  0
 17 18  1  0  0  0  0
 17 36  1  0  0  0  0
 18 37  1  0  0  0  0
 19 20  1  0  0  0  0
M  END
>  <Energy>
23.1121

$$$$

 OpenBabel04232614443D

 29 31  0  0  0  0  0  0  0  0999 V2000
    1.6571   -1.3518    0.0433 O   0  0  0  0  0  0  0  0  0  0  0  0
    0.4806   -0.6577    0.0136 C   0  0  0  0  0  0  0  0  0  0  0  0
   -0.0829   -0.2819   -1.2016 C   0  0  0  0  0  0  0  0  0  0  0  0
   -1.2858    0.4318   -1.2144 C   0  0  0  0  0  0  0  0  0  0  0  0
   -1.9314    0.7778   -0.0152 C   0  0  0  0  0  0  0  0  0  0  0  0
   -3.1839    1.5279   -0.0122 C   0  0  0  0  0  0  0  0  0  0  0  0
   -3.5482    2.4218   -0.9990 C   0  0  0  0  0  0  0  0  0  0  0  0
   -5.0893    3.0790   -0.6596 S   0  0  0  0  0  0  0  0  0  0  0  0
   -5.1753    2.1364    0.7830 C   0  0  0  0  0  0  0  0  0  0  0  0
   -6.3459    2.2098    1.6669 C   0  0  0  0  0  0  0  0  0  0  0  0
   -6.2164    1.9486    3.0362 C   0  0  0  0  0  0  0  0  0  0  0  0
   -7.3277    2.0232    3.8759 C   0  0  0  0  0  0  0  0  0  0  0  0
   -8.5520    2.3491    3.3185 C   0  0  0  0  0  0  0  0  0  0  0  0
   -8.7304    2.5952    2.0047 N   0  0  0  0  0  0  0  0  0  0  0  0
   -7.6291    2.5158    1.2149 C   0  0  0  0  0  0  0  0  0  0  0  0
   -4.1008    1.4066    1.0235 N   0  0  0  0  0  0  0  0  0  0  0  0
   -1.3584    0.3780    1.2015 C   0  0  0  0  0  0  0  0  0  0  0  0
   -0.1561   -0.3314    1.2109 C   0  0  0  0  0  0  0  0  0  0  0  0
    0.4116   -0.7133    2.3948 O   0  0  0  0  0  0  0  0  0  0  0  0
    1.9602   -1.5071   -0.8635 H   0  0  0  0  0  0  0  0  0  0  0  0
    0.3923   -0.5367   -2.1437 H   0  0  0  0  0  0  0  0  0  0  0  0
   -1.7161    0.6972   -2.1770 H   0  0  0  0  0  0  0  0  0  0  0  0
   -3.0047    2.7236   -1.8822 H   0  0  0  0  0  0  0  0  0  0  0  0
   -5.2451    1.6916    3.4543 H   0  0  0  0  0  0  0  0  0  0  0  0
   -7.2385    1.8310    4.9394 H   0  0  0  0  0  0  0  0  0  0  0  0
   -9.4473    2.4205    3.9298 H   0  0  0  0  0  0  0  0  0  0  0  0
   -7.8377    2.7044    0.1649 H   0  0  0  0  0  0  0  0  0  0  0  0
   -1.8552    0.6315    2.1341 H   0  0  0  0  0  0  0  0  0  0  0  0
   -0.1657   -0.4399    3.1239 H   0  0  0  0  0  0  0  0  0  0  0  0
  1  2  1  0  0  0  0
  1 20  1  0  0  0  0
  2  3  1  0  0  0  0
  2 18  2  0  0  0  0
  3  4  2  0  0  0  0
  3 21  1  0  0  0  0
  4  5  1  0  0  0  0
  4 22  1  0  0  0  0
  5  6  1  0  0  0  0
  5 17  2  0  0  0  0
  6  7  2  0  0  0  0
  6 16  1  0  0  0  0
  7  8  1  0  0  0  0
  7 23  1  0  0  0  0
  8  9  1  0  0  0  0
  9 10  1  0  0  0  0
  9 16  2  0  0  0  0
 10 11  1  0  0  0  0
 10 15  2  0  0  0  0
 11 12  2  0  0  0  0
 11 24  1  0  0  0  0
 12 13  1  0  0  0  0
 12 25  1  0  0  0  0
 13 14  2  0  0  0  0
 13 26  1  0  0  0  0
 14 15  1  0  0  0  0
 15 27  1  0  0  0  0
 17 18  1  0  0  0  0
 17 28  1  0  0  0  0
 18 19  1  0  0  0  0
 19 29  1  0  0  0  0
M  END
>  <Energy>
50.2946

$$$$

 OpenBabel04232614442D

 35 38  0  0  0  0  0  0  0  0999 V2000
    0.0000    0.0000    0.0000 O   0  0  0  0  0  0  0  0  0  0  0  0
    0.0000    0.0000    0.0000 C   0  0  0  0  0  0  0  0  0  0  0  0
    0.0000    0.0000    0.0000 C   0  0  0  0  0  0  0  0  0  0  0  0
    0.0000    0.0000    0.0000 C   0  0  0  0  0  0  0  0  0  0  0  0
    0.0000    0.0000    0.0000 C   0  0  0  0  0  0  0  0  0  0  0  0
    0.0000    0.0000    0.0000 C   0  0  0  0  0  0  0  0  0  0  0  0
    0.0000    0.0000    0.0000 C   0  0  0  0  0  0  0  0  0  0  0  0
    0.0000    0.0000    0.0000 C   0  0  0  0  0  0  0  0  0  0  0  0
    0.0000    0.0000    0.0000 N   0  0  0  0  0  0  0  0  0  0  0  0
    0.0000    0.0000    0.0000 C   0  0  0  0  0  0  0  0  0  0  0  0
    0.0000    0.0000    0.0000 N   0  0  0  0  0  0  0  0  0  0  0  0
    0.0000    0.0000    0.0000 C   0  0  0  0  0  0  0  0  0  0  0  0
    0.0000    0.0000    0.0000 C   0  0  0  0  0  0  0  0  0  0  0  0
    0.0000    0.0000    0.0000 C   0  0  0  0  0  0  0  0  0  0  0  0
    0.0000    0.0000    0.0000 C   0  0  0  0  0  0  0  0  0  0  0  0
    0.0000    0.0000    0.0000 C   0  0  0  0  0  0  0  0  0  0  0  0
    0.0000    0.0000    0.0000 C   0  0  0  0  0  0  0  0  0  0  0  0
    0.0000    0.0000    0.0000 C   0  0  0  0  0  0  0  0  0  0  0  0
    0.0000    0.0000    0.0000 C   0  0  0  0  0  0  0  0  0  0  0  0
    0.0000    0.0000    0.0000 C   0  0  0  0  0  0  0  0  0  0  0  0
    0.0000    0.0000    0.0000 C   0  0  0  0  0  0  0  0  0  0  0  0
    0.0000    0.0000    0.0000 H   0  0  0  0  0  0  0  0  0  0  0  0
    0.0000    0.0000    0.0000 H   0  0  0  0  0  0  0  0  0  0  0  0
    0.0000    0.0000    0.0000 H   0  0  0  0  0  0  0  0  0  0  0  0
    0.0000    0.0000    0.0000 H   0  0  0  0  0  0  0  0  0  0  0  0
    0.0000    0.0000    0.0000 H   0  0  0  0  0  0  0  0  0  0  0  0
    0.0000    0.0000    0.0000 H   0  0  0  0  0  0  0  0  0  0  0  0
    0.0000    0.0000    0.0000 H   0  0  0  0  0  0  0  0  0  0  0  0
    0.0000    0.0000    0.0000 H   0  0  0  0  0  0  0  0  0  0  0  0
    0.0000    0.0000    0.0000 H   0  0  0  0  0  0  0  0  0  0  0  0
    0.0000    0.0000    0.0000 H   0  0  0  0  0  0  0  0  0  0  0  0
    0.0000    0.0000    0.0000 H   0  0  0  0  0  0  0  0  0  0  0  0
    0.0000    0.0000    0.0000 H   0  0  0  0  0  0  0  0  0  0  0  0
    0.0000    0.0000    0.0000 H   0  0  0  0  0  0  0  0  0  0  0  0
    0.0000    0.0000    0.0000 H   0  0  0  0  0  0  0  0  0  0  0  0
  1  2  2  0  0  0  0
  2 11  1  0  0  0  0
  2  3  1  0  0  0  0
  3  8  2  0  0  0  0
  3  4  1  0  0  0  0
  4  5  2  0  0  0  0
  4 22  1  0  0  0  0
  5  6  1  0  0  0  0
  5 23  1  0  0  0  0
  6  7  2  0  0  0  0
  6 24  1  0  0  0  0
  7  8  1  0  0  0  0
  7 25  1  0  0  0  0
  8  9  1  0  0  0  0
  9 10  2  0  0  0  0
 10 14  1  6  0  0  0
 10 11  1  0  0  0  0
 11 12  1  0  0  0  0
 12 13  1  0  0  0  0
 12 26  1  0  0  0  0
 12 27  1  0  0  0  0
 13 14  1  1  0  0  0
 13 28  1  0  0  0  0
 13 29  1  0  0  0  0
 14 15  2  0  0  0  0
 15 16  1  1  0  0  0
 15 30  1  6  0  0  0
 16 21  2  0  0  0  0
 16 17  1  0  0  0  0
 17 18  2  0  0  0  0
 17 31  1  0  0  0  0
 18 19  1  0  0  0  0
 18 32  1  0  0  0  0
 19 20  2  0  0  0  0
 19 33  1  0  0  0  0
 20 21  1  0  0  0  0
 20 34  1  0  0  0  0
 21 35  1  0  0  0  0
M  END
>  <Energy>
2.67854e+10

$$$$

 OpenBabel04232614443D

 35 38  0  0  0  0  0  0  0  0999 V2000
    1.3796    0.1278    0.4595 C   0  0  0  0  0  0  0  0  0  0  0  0
    2.8340   -0.2429    0.4692 C   0  0  0  0  0  0  0  0  0  0  0  0
    3.5394   -0.2628    1.6777 C   0  0  0  0  0  0  0  0  0  0  0  0
    4.9052   -0.5434    1.6894 C   0  0  0  0  0  0  0  0  0  0  0  0
    5.5750   -0.8082    0.4890 C   0  0  0  0  0  0  0  0  0  0  0  0
    7.0573   -0.9767    0.4942 C   0  0  0  0  0  0  0  0  0  0  0  0
    7.6518   -0.9507    1.5704 O   0  0  0  0  0  0  0  0  0  0  0  0
    7.6957   -1.1234   -0.7515 N   0  0  0  0  0  0  0  0  0  0  0  0
    9.1449   -1.1478   -0.7516 C   0  0  0  0  0  0  0  0  0  0  0  0
    6.9625   -1.2425   -1.9155 C   0  0  0  0  0  0  0  0  0  0  0  0
    5.6198   -1.1483   -1.9366 C   0  0  0  0  0  0  0  0  0  0  0  0
    4.8722   -0.8530   -0.7217 C   0  0  0  0  0  0  0  0  0  0  0  0
    3.4981   -0.5763   -0.7217 C   0  0  0  0  0  0  0  0  0  0  0  0
    5.0252   -1.3442   -3.2996 C   0  0  0  0  0  0  0  0  0  0  0  0
    6.2646   -1.5494   -4.1188 C   0  0  0  0  0  0  0  0  0  0  0  0
    6.3402   -1.7699   -5.4862 C   0  0  0  0  0  0  0  0  0  0  0  0
    7.6016   -1.9181   -6.0578 C   0  0  0  0  0  0  0  0  0  0  0  0
    8.7514   -1.8481   -5.2610 C   0  0  0  0  0  0  0  0  0  0  0  0
    8.6584   -1.6341   -3.8793 C   0  0  0  0  0  0  0  0  0  0  0  0
    7.4078   -1.4819   -3.2974 C   0  0  0  0  0  0  0  0  0  0  0  0
    1.2108    1.0103    1.0866 H   0  0  0  0  0  0  0  0  0  0  0  0
    0.7727   -0.7013    0.8340 H   0  0  0  0  0  0  0  0  0  0  0  0
    1.0417    0.3820   -0.5507 H   0  0  0  0  0  0  0  0  0  0  0  0
    3.0358   -0.0322    2.6143 H   0  0  0  0  0  0  0  0  0  0  0  0
    5.4517   -0.5261    2.6300 H   0  0  0  0  0  0  0  0  0  0  0  0
    9.5611   -0.9625    0.2428 H   0  0  0  0  0  0  0  0  0  0  0  0
    9.5173   -0.3541   -1.4072 H   0  0  0  0  0  0  0  0  0  0  0  0
    9.4935   -2.1293   -1.0833 H   0  0  0  0  0  0  0  0  0  0  0  0
    2.9381   -0.5810   -1.6537 H   0  0  0  0  0  0  0  0  0  0  0  0
    4.4819   -0.4569   -3.6383 H   0  0  0  0  0  0  0  0  0  0  0  0
    4.3854   -2.2296   -3.3342 H   0  0  0  0  0  0  0  0  0  0  0  0
    5.4459   -1.8216   -6.0981 H   0  0  0  0  0  0  0  0  0  0  0  0
    7.6966   -2.0864   -7.1277 H   0  0  0  0  0  0  0  0  0  0  0  0
    9.7305   -1.9605   -5.7215 H   0  0  0  0  0  0  0  0  0  0  0  0
    9.5739   -1.5891   -3.3047 H   0  0  0  0  0  0  0  0  0  0  0  0
  1  2  1  0  0  0  0
  1 21  1  0  0  0  0
  1 22  1  0  0  0  0
  1 23  1  0  0  0  0
  2  3  1  0  0  0  0
  2 13  2  0  0  0  0
  3  4  2  0  0  0  0
  3 24  1  0  0  0  0
  4  5  1  0  0  0  0
  4 25  1  0  0  0  0
  5  6  1  0  0  0  0
  5 12  2  0  0  0  0
  6  7  2  0  0  0  0
  6  8  1  0  0  0  0
  8  9  1  0  0  0  0
  8 10  1  0  0  0  0
  9 26  1  0  0  0  0
  9 27  1  0  0  0  0
  9 28  1  0  0  0  0
 10 11  2  0  0  0  0
 10 20  1  0  0  0  0
 11 12  1  0  0  0  0
 11 14  1  0  0  0  0
 12 13  1  0  0  0  0
 13 29  1  0  0  0  0
 14 15  1  0  0  0  0
 14 30  1  0  0  0  0
 14 31  1  0  0  0  0
 15 16  1  0  0  0  0
 15 20  2  0  0  0  0
 16 17  2  0  0  0  0
 16 32  1  0  0  0  0
 17 18  1  0  0  0  0
 17 33  1  0  0  0  0
 18 19  2  0  0  0  0
 18 34  1  0  0  0  0
 19 20  1  0  0  0  0
 19 35  1  0  0  0  0
M  END
>  <Energy>
63.7135

$$$$

 OpenBabel04232614443D

 29 30  0  0  0  0  0  0  0  0999 V2000
    1.2308    0.0162   -0.3930 C   0  0  0  0  0  0  0  0  0  0  0  0
    2.5523   -0.0332   -0.1991 C   0  0  0  0  0  0  0  0  0  0  0  0
    3.3686   -1.2089    0.0162 C   0  0  0  0  0  0  0  0  0  0  0  0
    2.9053   -2.6173   -0.1601 C   0  0  0  0  0  0  0  0  0  0  0  0
    4.6180   -0.8383    0.3454 C   0  0  0  0  0  0  0  0  0  0  0  0
    5.7332   -1.6655    0.5842 C   0  0  0  0  0  0  0  0  0  0  0  0
    6.6178   -2.3921    0.7645 N   0  0  0  0  0  0  0  0  0  0  0  0
    4.6702    0.6393    0.3231 C   0  0  0  0  0  0  0  0  0  0  0  0
    5.6750    1.2956    0.5399 O   0  0  0  0  0  0  0  0  0  0  0  0
    3.3912    1.0588   -0.0679 N   0  0  0  0  0  0  0  0  0  0  0  0
    3.1634    2.3990   -0.4735 C   0  0  0  0  0  0  0  0  0  0  0  0
    3.5854    3.4681    0.3213 C   0  0  0  0  0  0  0  0  0  0  0  0
    3.4357    4.7829   -0.1244 C   0  0  0  0  0  0  0  0  0  0  0  0
    2.9173    5.0375   -1.3943 C   0  0  0  0  0  0  0  0  0  0  0  0
    2.5228    3.9787   -2.2232 C   0  0  0  0  0  0  0  0  0  0  0  0
    2.0676    4.2187   -3.6411 C   0  0  0  0  0  0  0  0  0  0  0  0
    2.0625    5.5320   -4.0014 F   0  0  0  0  0  0  0  0  0  0  0  0
    2.8613    3.5865   -4.5507 F   0  0  0  0  0  0  0  0  0  0  0  0
    0.8056    3.7614   -3.8680 F   0  0  0  0  0  0  0  0  0  0  0  0
    2.6140    2.6634   -1.7364 C   0  0  0  0  0  0  0  0  0  0  0  0
    0.6116   -0.8730   -0.4270 H   0  0  0  0  0  0  0  0  0  0  0  0
    0.6977    0.9601   -0.4625 H   0  0  0  0  0  0  0  0  0  0  0  0
    1.8496   -2.6897   -0.4345 H   0  0  0  0  0  0  0  0  0  0  0  0
    3.0421   -3.1880    0.7639 H   0  0  0  0  0  0  0  0  0  0  0  0
    3.4746   -3.1053   -0.9591 H   0  0  0  0  0  0  0  0  0  0  0  0
    4.0258    3.2891    1.3001 H   0  0  0  0  0  0  0  0  0  0  0  0
    3.7528    5.6077    0.5096 H   0  0  0  0  0  0  0  0  0  0  0  0
    2.8493    6.0667   -1.7443 H   0  0  0  0  0  0  0  0  0  0  0  0
    2.3363    1.8401   -2.3936 H   0  0  0  0  0  0  0  0  0  0  0  0
  1  2  2  0  0  0  0
  1 21  1  0  0  0  0
  1 22  1  0  0  0  0
  2  3  1  0  0  0  0
  2 10  1  0  0  0  0
  3  4  1  0  0  0  0
  3  5  2  0  0  0  0
  4 23  1  0  0  0  0
  4 24  1  0  0  0  0
  4 25  1  0  0  0  0
  5  6  1  0  0  0  0
  5  8  1  0  0  0  0
  6  7  3  0  0  0  0
  8  9  2  0  0  0  0
  8 10  1  0  0  0  0
 10 11  1  0  0  0  0
 11 12  1  0  0  0  0
 11 20  2  0  0  0  0
 12 13  2  0  0  0  0
 12 26  1  0  0  0  0
 13 14  1  0  0  0  0
 13 27  1  0  0  0  0
 14 15  2  0  0  0  0
 14 28  1  0  0  0  0
 15 16  1  0  0  0  0
 15 20  1  0  0  0  0
 16 17  1  0  0  0  0
 16 18  1  0  0  0  0
 16 19  1  0  0  0  0
 20 29  1  0  0  0  0
M  END
>  <Energy>
53.0864

$$$$
