444732


 24 24  0  0  0  0  0  0  0  0999 V2000
   -0.1999    6.8652    5.6408 C   0  0  0  0  0  0  0  0  0  0  0  0
    1.0047    7.4703    6.3633 C   0  0  0  0  0  0  0  0  0  0  0  0
   -0.8063    5.7639    6.4744 C   0  0  0  0  0  0  0  0  0  0  0  0
   -0.4816    5.3942    7.7319 C   0  0  0  0  0  0  0  0  0  0  0  0
    0.6273    6.0252    8.5332 C   0  0  0  0  0  0  0  0  0  0  0  0
   -1.2368    4.3057    8.3596 C   0  0  0  0  0  0  0  0  0  0  0  0
   -1.6563    4.2615    9.6336 C   0  0  0  0  0  0  0  0  0  0  0  0
   -2.7128    2.1309    9.4119 O   0  0  0  0  0  0  0  0  0  0  0  0
   -3.4753    2.1492   12.0094 O   0  0  0  0  0  0  0  0  0  0  0  0
   -2.7474    3.2110   11.4548 N   0  0  0  0  0  0  0  0  0  0  0  0
   -2.4213    3.0826   10.1286 C   0  0  0  0  0  0  0  0  0  0  0  0
   -2.5949    4.0204   12.0460 H   0  0  0  0  0  0  0  0  0  0  0  0
   -2.7539    1.6414   12.4181 H   0  0  0  0  0  0  0  0  0  0  0  0
   -0.4147    5.3598    3.7655 O   0  0  0  0  0  0  0  0  0  0  0  0
    0.2423    6.2450    4.3133 C   0  0  0  0  0  0  0  0  0  0  0  0
    1.4867    6.7266    3.6456 C   0  0  0  0  0  0  0  0  0  0  0  0
    3.7825    7.6137    2.4144 C   0  0  0  0  0  0  0  0  0  0  0  0
    1.6520    6.4797    2.3018 C   0  0  0  0  0  0  0  0  0  0  0  0
    2.4220    7.3986    4.3993 C   0  0  0  0  0  0  0  0  0  0  0  0
    2.8156    6.9291    1.6777 C   0  0  0  0  0  0  0  0  0  0  0  0
    3.5855    7.8483    3.7752 C   0  0  0  0  0  0  0  0  0  0  0  0
    4.9590    8.0681    1.7833 N   0  0  0  0  0  0  0  0  0  0  0  0
    5.5181    7.3406    0.6615 C   0  0  0  0  0  0  0  0  0  0  0  0
    5.6166    9.2767    2.2394 C   0  0  0  0  0  0  0  0  0  0  0  0
 14 15  2  0
  8 11  2  0
  9 10  1  0
  9 13  1  0
 22 17  1  0
 22 23  1  0
 22 24  1  0
 10 11  1  0
 10 12  1  0
  1 15  1  0
  1  3  1  0
  1  2  1  0
 15 16  1  0
 16 18  2  0
 16 19  1  0
  3  4  2  0
 17 20  2  0
 17 21  1  0
 18 20  1  0
 19 21  2  0
  4  5  1  0
  4  6  1  0
  6  7  2  0
  7 11  1  0
M  END
> <PUBCHEM_COMPOUND_CID>
444732

> <PUBCHEM_CONFORMER_RMSD>
0.8

> <PUBCHEM_CONFORMER_DIVERSEORDER>
2
40
76
12
44
10
59
54
7
73
38
27
93
70
18
22
43
90
77
26
35
80
60
14
3
96
31
83
49
4
58
69
6
5
21
78
30
55
41
63
39
11
20
89
45
75
84
37
65
48
28
15
57
32
91
72
17
42
8
9
16
13
52
53
33
85
92
29
56
86
81
1
71
87
23
97
79
47
94
68
19
50
46
24
36
62
67
34
74
88
51
66
95
25
61
82
98
64

> <PUBCHEM_MMFF94_PARTIAL_CHARGES>
30
1 -0.57
11 0.1
12 -0.15
13 -0.15
14 -0.15
15 -0.15
16 -0.14
17 0.14
18 0.37
19 0.37
2 -0.57
20 -0.15
21 -0.14
22 0.62
24 0.15
28 0.15
29 0.15
3 -0.44
30 0.15
31 0.15
4 -0.84
41 0.15
42 0.15
43 0.37
44 0.4
5 -0.39
6 0.2
7 0.42
8 0.09
9 -0.29

> <PUBCHEM_EFFECTIVE_ROTOR_COUNT>
7

> <PUBCHEM_PHARMACOPHORE_FEATURES>
7
1 1 acceptor
1 10 hydrophobe
1 17 hydrophobe
1 2 acceptor
1 4 cation
1 5 donor
6 8 11 12 13 14 15 rings

> <PUBCHEM_HEAVY_ATOM_COUNT>
22

> <PUBCHEM_ATOM_DEF_STEREO_COUNT>
1

> <PUBCHEM_ATOM_UDEF_STEREO_COUNT>
0

> <PUBCHEM_BOND_DEF_STEREO_COUNT>
2

> <PUBCHEM_BOND_UDEF_STEREO_COUNT>
0

> <PUBCHEM_ISOTOPIC_ATOM_COUNT>
0

> <PUBCHEM_COMPONENT_COUNT>
1

> <PUBCHEM_CACTVS_TAUTO_COUNT>
9

> <PUBCHEM_CONFORMER_ID>
0006C93C00000002

> <PUBCHEM_MMFF94_ENERGY>
68.5736

> <PUBCHEM_FEATURE_SELFOVERLAP>
35.52

> <PUBCHEM_SHAPE_FINGERPRINT>
10319926 262 15697732496763557303
10692045 39 11815635055283359444
12293681 160 12973598932778199301
12403259 118 12319444550194199881
12592606 108 18410855504254728187
12596602 18 17131834304279926931
12633257 1 14907895015762341657
12760667 363 18409168800717199234
12895836 83 12757141399334142939
12895837 130 11025807491535449987
13103583 49 16773795926253527159
13533116 47 18124311864596212585
13540713 4 18268967891206584945
13673619 4 18130787854560239896
13690498 29 18187078447376276677
13757389 114 17752197293529989333
14123256 34 18334017211271614963
14251764 30 18413387648445131050
14420673 8 18410295830955217299
14765038 42 14764051377869384406
14931854 50 17458337533417374899
15061688 2 9151177566536318361
15188451 53 16845284008419407207
15238133 3 12967125056148805194
17492 54 14706922956090611105
17780758 139 17561361751364416001
1813 80 18341623632459686820
193927 3 18334573581498500097
19784866 240 18335702788862333573
20871999 31 16443056201953700861
21033648 29 13973701524307103169
21054139 6 18041841706575929146
21298829 104 8142096376683825887
21307412 95 17895472635511529595
21401589 2 10591765411262862869
21403212 168 15554450656981572695
21637258 2 18272649064820128705
22765269 38 9871756779986210251
22950370 63 18342741823174253368
23522609 53 18123222110744769216
23559900 14 16661202702150013749
2748736 6 8574717888096135782
2767999 5 8070029952208260022
2838139 119 11530478956365527086
312425 83 14347452915209619779
3472631 163 11169907286595898211
351380 3 18412823590448124066
3737641 26 17987805090320306142
393628 179 7853571254228018870
393628 194 9007055794471491195
4107672 100 17604143715159178813
465052 167 18342180015428633199
474 4 10303825306196850713
474113 269 17773867770798226359
484985 159 18340482249728134233
5104073 3 14404600174171725018
54039377 194 18413111641758503542
543368 44 10809331245035261055
6327066 14 9007056859474492474
636775 8 18270689671814971022
77188 2 18341611563786720841
7970288 3 18413103974361184510
8217 86 17967816075936971442
999808 66 18335990830338241987

> <PUBCHEM_SHAPE_MULTIPOLES>
425.18
16.88
2.68
1.47
16.09
1.23
0
-19.37
-0.29
-0.05
0.04
-0.97
0.03
0.23

> <PUBCHEM_SHAPE_SELFOVERLAP>
868.487

> <PUBCHEM_SHAPE_VOLUME>
246.3

> <PUBCHEM_COORDINATE_TYPE>
2
5
10

> <minimizedAffinity>
-8.55273

> <CNNscore>
0.9531153440

> <CNNaffinity>
7.0654606819

> <CNN_VS>
6.7341990471

> <CNNaffinity_variance>
0.1838679165

$$$$
444732


 24 24  0  0  0  0  0  0  0  0999 V2000
   -0.4047    7.0758    5.6526 C   0  0  0  0  0  0  0  0  0  0  0  0
    1.1074    7.1324    5.8749 C   0  0  0  0  0  0  0  0  0  0  0  0
   -1.0094    5.9649    6.4747 C   0  0  0  0  0  0  0  0  0  0  0  0
   -0.6196    5.5174    7.6877 C   0  0  0  0  0  0  0  0  0  0  0  0
    0.5724    6.0530    8.4374 C   0  0  0  0  0  0  0  0  0  0  0  0
   -1.3859    4.4369    8.3155 C   0  0  0  0  0  0  0  0  0  0  0  0
   -1.5705    4.2551    9.6324 C   0  0  0  0  0  0  0  0  0  0  0  0
   -2.7133    2.1706    9.4008 O   0  0  0  0  0  0  0  0  0  0  0  0
   -3.4707    2.2058   11.9996 O   0  0  0  0  0  0  0  0  0  0  0  0
   -2.7009    3.2400   11.4496 N   0  0  0  0  0  0  0  0  0  0  0  0
   -2.3822    3.1057   10.1223 C   0  0  0  0  0  0  0  0  0  0  0  0
   -2.5147    4.0393   12.0449 H   0  0  0  0  0  0  0  0  0  0  0  0
   -2.7701    1.6668   12.4044 H   0  0  0  0  0  0  0  0  0  0  0  0
   -0.5490    5.6506    3.7092 O   0  0  0  0  0  0  0  0  0  0  0  0
   -0.7077    6.7757    4.1827 C   0  0  0  0  0  0  0  0  0  0  0  0
   -1.2255    7.8570    3.2946 C   0  0  0  0  0  0  0  0  0  0  0  0
   -2.1820    9.8512    1.6570 C   0  0  0  0  0  0  0  0  0  0  0  0
   -1.4161    9.1122    3.8260 C   0  0  0  0  0  0  0  0  0  0  0  0
   -1.4936    7.5577    1.9782 C   0  0  0  0  0  0  0  0  0  0  0  0
   -1.9010   10.1229    2.9961 C   0  0  0  0  0  0  0  0  0  0  0  0
   -1.9784    8.5685    1.1482 C   0  0  0  0  0  0  0  0  0  0  0  0
   -2.6723   10.8732    0.8179 N   0  0  0  0  0  0  0  0  0  0  0  0
   -2.8646   12.2150    1.3309 C   0  0  0  0  0  0  0  0  0  0  0  0
   -2.9769   10.5984   -0.5724 C   0  0  0  0  0  0  0  0  0  0  0  0
 14 15  2  0
  8 11  2  0
  9 10  1  0
  9 13  1  0
 22 17  1  0
 22 23  1  0
 22 24  1  0
 10 11  1  0
 10 12  1  0
  1 15  1  0
  1  3  1  0
  1  2  1  0
 15 16  1  0
 16 18  2  0
 16 19  1  0
  3  4  2  0
 17 20  2  0
 17 21  1  0
 18 20  1  0
 19 21  2  0
  4  5  1  0
  4  6  1  0
  6  7  2  0
  7 11  1  0
M  END
> <PUBCHEM_COMPOUND_CID>
444732

> <PUBCHEM_CONFORMER_RMSD>
0.8

> <PUBCHEM_CONFORMER_DIVERSEORDER>
2
40
76
12
44
10
59
54
7
73
38
27
93
70
18
22
43
90
77
26
35
80
60
14
3
96
31
83
49
4
58
69
6
5
21
78
30
55
41
63
39
11
20
89
45
75
84
37
65
48
28
15
57
32
91
72
17
42
8
9
16
13
52
53
33
85
92
29
56
86
81
1
71
87
23
97
79
47
94
68
19
50
46
24
36
62
67
34
74
88
51
66
95
25
61
82
98
64

> <PUBCHEM_MMFF94_PARTIAL_CHARGES>
30
1 -0.57
11 0.1
12 -0.15
13 -0.15
14 -0.15
15 -0.15
16 -0.14
17 0.14
18 0.37
19 0.37
2 -0.57
20 -0.15
21 -0.14
22 0.62
24 0.15
28 0.15
29 0.15
3 -0.44
30 0.15
31 0.15
4 -0.84
41 0.15
42 0.15
43 0.37
44 0.4
5 -0.39
6 0.2
7 0.42
8 0.09
9 -0.29

> <PUBCHEM_EFFECTIVE_ROTOR_COUNT>
7

> <PUBCHEM_PHARMACOPHORE_FEATURES>
7
1 1 acceptor
1 10 hydrophobe
1 17 hydrophobe
1 2 acceptor
1 4 cation
1 5 donor
6 8 11 12 13 14 15 rings

> <PUBCHEM_HEAVY_ATOM_COUNT>
22

> <PUBCHEM_ATOM_DEF_STEREO_COUNT>
1

> <PUBCHEM_ATOM_UDEF_STEREO_COUNT>
0

> <PUBCHEM_BOND_DEF_STEREO_COUNT>
2

> <PUBCHEM_BOND_UDEF_STEREO_COUNT>
0

> <PUBCHEM_ISOTOPIC_ATOM_COUNT>
0

> <PUBCHEM_COMPONENT_COUNT>
1

> <PUBCHEM_CACTVS_TAUTO_COUNT>
9

> <PUBCHEM_CONFORMER_ID>
0006C93C00000002

> <PUBCHEM_MMFF94_ENERGY>
68.5736

> <PUBCHEM_FEATURE_SELFOVERLAP>
35.52

> <PUBCHEM_SHAPE_FINGERPRINT>
10319926 262 15697732496763557303
10692045 39 11815635055283359444
12293681 160 12973598932778199301
12403259 118 12319444550194199881
12592606 108 18410855504254728187
12596602 18 17131834304279926931
12633257 1 14907895015762341657
12760667 363 18409168800717199234
12895836 83 12757141399334142939
12895837 130 11025807491535449987
13103583 49 16773795926253527159
13533116 47 18124311864596212585
13540713 4 18268967891206584945
13673619 4 18130787854560239896
13690498 29 18187078447376276677
13757389 114 17752197293529989333
14123256 34 18334017211271614963
14251764 30 18413387648445131050
14420673 8 18410295830955217299
14765038 42 14764051377869384406
14931854 50 17458337533417374899
15061688 2 9151177566536318361
15188451 53 16845284008419407207
15238133 3 12967125056148805194
17492 54 14706922956090611105
17780758 139 17561361751364416001
1813 80 18341623632459686820
193927 3 18334573581498500097
19784866 240 18335702788862333573
20871999 31 16443056201953700861
21033648 29 13973701524307103169
21054139 6 18041841706575929146
21298829 104 8142096376683825887
21307412 95 17895472635511529595
21401589 2 10591765411262862869
21403212 168 15554450656981572695
21637258 2 18272649064820128705
22765269 38 9871756779986210251
22950370 63 18342741823174253368
23522609 53 18123222110744769216
23559900 14 16661202702150013749
2748736 6 8574717888096135782
2767999 5 8070029952208260022
2838139 119 11530478956365527086
312425 83 14347452915209619779
3472631 163 11169907286595898211
351380 3 18412823590448124066
3737641 26 17987805090320306142
393628 179 7853571254228018870
393628 194 9007055794471491195
4107672 100 17604143715159178813
465052 167 18342180015428633199
474 4 10303825306196850713
474113 269 17773867770798226359
484985 159 18340482249728134233
5104073 3 14404600174171725018
54039377 194 18413111641758503542
543368 44 10809331245035261055
6327066 14 9007056859474492474
636775 8 18270689671814971022
77188 2 18341611563786720841
7970288 3 18413103974361184510
8217 86 17967816075936971442
999808 66 18335990830338241987

> <PUBCHEM_SHAPE_MULTIPOLES>
425.18
16.88
2.68
1.47
16.09
1.23
0
-19.37
-0.29
-0.05
0.04
-0.97
0.03
0.23

> <PUBCHEM_SHAPE_SELFOVERLAP>
868.487

> <PUBCHEM_SHAPE_VOLUME>
246.3

> <PUBCHEM_COORDINATE_TYPE>
2
5
10

> <minimizedAffinity>
-8.05036

> <CNNscore>
0.9373431802

> <CNNaffinity>
7.1217026711

> <CNN_VS>
6.6754794121

> <CNNaffinity_variance>
0.3514052629

$$$$
444732


 24 24  0  0  0  0  0  0  0  0999 V2000
    0.7724    6.5924    4.6621 C   0  0  0  0  0  0  0  0  0  0  0  0
    0.1497    6.5091    3.2677 C   0  0  0  0  0  0  0  0  0  0  0  0
   -0.1612    5.9940    5.6846 C   0  0  0  0  0  0  0  0  0  0  0  0
   -0.0130    5.9522    7.0262 C   0  0  0  0  0  0  0  0  0  0  0  0
    1.1930    6.4851    7.7552 C   0  0  0  0  0  0  0  0  0  0  0  0
   -1.0761    5.3418    7.8301 C   0  0  0  0  0  0  0  0  0  0  0  0
   -0.9091    4.4808    8.8460 C   0  0  0  0  0  0  0  0  0  0  0  0
   -3.0229    3.3807    9.0084 O   0  0  0  0  0  0  0  0  0  0  0  0
   -3.0759    3.7059   11.6954 O   0  0  0  0  0  0  0  0  0  0  0  0
   -2.0013    4.1711   10.9249 N   0  0  0  0  0  0  0  0  0  0  0  0
   -2.0931    3.9454    9.5750 C   0  0  0  0  0  0  0  0  0  0  0  0
   -1.2896    4.7080   11.4077 H   0  0  0  0  0  0  0  0  0  0  0  0
   -2.7173    2.8525   11.9927 H   0  0  0  0  0  0  0  0  0  0  0  0
    2.0535    8.4313    5.5602 O   0  0  0  0  0  0  0  0  0  0  0  0
    0.9986    8.0560    5.0486 C   0  0  0  0  0  0  0  0  0  0  0  0
   -0.0676    9.0669    4.7888 C   0  0  0  0  0  0  0  0  0  0  0  0
   -2.0348   10.9310    4.3108 C   0  0  0  0  0  0  0  0  0  0  0  0
    0.0295   10.2985    5.3953 C   0  0  0  0  0  0  0  0  0  0  0  0
   -1.1078    8.7287    3.9534 C   0  0  0  0  0  0  0  0  0  0  0  0
   -0.9676   11.2433    5.1531 C   0  0  0  0  0  0  0  0  0  0  0  0
   -2.1048    9.6735    3.7111 C   0  0  0  0  0  0  0  0  0  0  0  0
   -3.0430   11.8863    4.0661 N   0  0  0  0  0  0  0  0  0  0  0  0
   -2.7735   13.2994    4.2425 C   0  0  0  0  0  0  0  0  0  0  0  0
   -4.3577   11.4683    3.6211 C   0  0  0  0  0  0  0  0  0  0  0  0
 14 15  2  0
  8 11  2  0
  9 10  1  0
  9 13  1  0
 22 17  1  0
 22 23  1  0
 22 24  1  0
 10 11  1  0
 10 12  1  0
  1 15  1  0
  1  3  1  0
  1  2  1  0
 15 16  1  0
 16 18  2  0
 16 19  1  0
  3  4  2  0
 17 20  2  0
 17 21  1  0
 18 20  1  0
 19 21  2  0
  4  5  1  0
  4  6  1  0
  6  7  2  0
  7 11  1  0
M  END
> <PUBCHEM_COMPOUND_CID>
444732

> <PUBCHEM_CONFORMER_RMSD>
0.8

> <PUBCHEM_CONFORMER_DIVERSEORDER>
2
40
76
12
44
10
59
54
7
73
38
27
93
70
18
22
43
90
77
26
35
80
60
14
3
96
31
83
49
4
58
69
6
5
21
78
30
55
41
63
39
11
20
89
45
75
84
37
65
48
28
15
57
32
91
72
17
42
8
9
16
13
52
53
33
85
92
29
56
86
81
1
71
87
23
97
79
47
94
68
19
50
46
24
36
62
67
34
74
88
51
66
95
25
61
82
98
64

> <PUBCHEM_MMFF94_PARTIAL_CHARGES>
30
1 -0.57
11 0.1
12 -0.15
13 -0.15
14 -0.15
15 -0.15
16 -0.14
17 0.14
18 0.37
19 0.37
2 -0.57
20 -0.15
21 -0.14
22 0.62
24 0.15
28 0.15
29 0.15
3 -0.44
30 0.15
31 0.15
4 -0.84
41 0.15
42 0.15
43 0.37
44 0.4
5 -0.39
6 0.2
7 0.42
8 0.09
9 -0.29

> <PUBCHEM_EFFECTIVE_ROTOR_COUNT>
7

> <PUBCHEM_PHARMACOPHORE_FEATURES>
7
1 1 acceptor
1 10 hydrophobe
1 17 hydrophobe
1 2 acceptor
1 4 cation
1 5 donor
6 8 11 12 13 14 15 rings

> <PUBCHEM_HEAVY_ATOM_COUNT>
22

> <PUBCHEM_ATOM_DEF_STEREO_COUNT>
1

> <PUBCHEM_ATOM_UDEF_STEREO_COUNT>
0

> <PUBCHEM_BOND_DEF_STEREO_COUNT>
2

> <PUBCHEM_BOND_UDEF_STEREO_COUNT>
0

> <PUBCHEM_ISOTOPIC_ATOM_COUNT>
0

> <PUBCHEM_COMPONENT_COUNT>
1

> <PUBCHEM_CACTVS_TAUTO_COUNT>
9

> <PUBCHEM_CONFORMER_ID>
0006C93C00000002

> <PUBCHEM_MMFF94_ENERGY>
68.5736

> <PUBCHEM_FEATURE_SELFOVERLAP>
35.52

> <PUBCHEM_SHAPE_FINGERPRINT>
10319926 262 15697732496763557303
10692045 39 11815635055283359444
12293681 160 12973598932778199301
12403259 118 12319444550194199881
12592606 108 18410855504254728187
12596602 18 17131834304279926931
12633257 1 14907895015762341657
12760667 363 18409168800717199234
12895836 83 12757141399334142939
12895837 130 11025807491535449987
13103583 49 16773795926253527159
13533116 47 18124311864596212585
13540713 4 18268967891206584945
13673619 4 18130787854560239896
13690498 29 18187078447376276677
13757389 114 17752197293529989333
14123256 34 18334017211271614963
14251764 30 18413387648445131050
14420673 8 18410295830955217299
14765038 42 14764051377869384406
14931854 50 17458337533417374899
15061688 2 9151177566536318361
15188451 53 16845284008419407207
15238133 3 12967125056148805194
17492 54 14706922956090611105
17780758 139 17561361751364416001
1813 80 18341623632459686820
193927 3 18334573581498500097
19784866 240 18335702788862333573
20871999 31 16443056201953700861
21033648 29 13973701524307103169
21054139 6 18041841706575929146
21298829 104 8142096376683825887
21307412 95 17895472635511529595
21401589 2 10591765411262862869
21403212 168 15554450656981572695
21637258 2 18272649064820128705
22765269 38 9871756779986210251
22950370 63 18342741823174253368
23522609 53 18123222110744769216
23559900 14 16661202702150013749
2748736 6 8574717888096135782
2767999 5 8070029952208260022
2838139 119 11530478956365527086
312425 83 14347452915209619779
3472631 163 11169907286595898211
351380 3 18412823590448124066
3737641 26 17987805090320306142
393628 179 7853571254228018870
393628 194 9007055794471491195
4107672 100 17604143715159178813
465052 167 18342180015428633199
474 4 10303825306196850713
474113 269 17773867770798226359
484985 159 18340482249728134233
5104073 3 14404600174171725018
54039377 194 18413111641758503542
543368 44 10809331245035261055
6327066 14 9007056859474492474
636775 8 18270689671814971022
77188 2 18341611563786720841
7970288 3 18413103974361184510
8217 86 17967816075936971442
999808 66 18335990830338241987

> <PUBCHEM_SHAPE_MULTIPOLES>
425.18
16.88
2.68
1.47
16.09
1.23
0
-19.37
-0.29
-0.05
0.04
-0.97
0.03
0.23

> <PUBCHEM_SHAPE_SELFOVERLAP>
868.487

> <PUBCHEM_SHAPE_VOLUME>
246.3

> <PUBCHEM_COORDINATE_TYPE>
2
5
10

> <minimizedAffinity>
-8.15185

> <CNNscore>
0.8602089286

> <CNNaffinity>
6.8595409393

> <CNN_VS>
5.9006385803

> <CNNaffinity_variance>
0.1621581465

$$$$
444732


 24 24  0  0  0  0  0  0  0  0999 V2000
    0.4591    7.1129    4.6142 C   0  0  0  0  0  0  0  0  0  0  0  0
   -0.3112    6.8364    3.3222 C   0  0  0  0  0  0  0  0  0  0  0  0
   -0.2483    6.4799    5.7864 C   0  0  0  0  0  0  0  0  0  0  0  0
    0.1789    6.3791    7.0635 C   0  0  0  0  0  0  0  0  0  0  0  0
    1.5212    6.8688    7.5413 C   0  0  0  0  0  0  0  0  0  0  0  0
   -0.7015    5.7448    8.0491 C   0  0  0  0  0  0  0  0  0  0  0  0
   -0.8563    4.4259    8.2437 C   0  0  0  0  0  0  0  0  0  0  0  0
   -2.6594    3.0931    9.0668 O   0  0  0  0  0  0  0  0  0  0  0  0
   -2.3896    4.1225   11.5560 O   0  0  0  0  0  0  0  0  0  0  0  0
   -1.5530    4.5241   10.5055 N   0  0  0  0  0  0  0  0  0  0  0  0
   -1.7907    3.9292    9.2926 C   0  0  0  0  0  0  0  0  0  0  0  0
   -0.9021    5.2766   10.6999 H   0  0  0  0  0  0  0  0  0  0  0  0
   -1.8275    3.4491   11.9753 H   0  0  0  0  0  0  0  0  0  0  0  0
    1.4375    9.1233    5.5251 O   0  0  0  0  0  0  0  0  0  0  0  0
    0.5214    8.6197    4.8753 C   0  0  0  0  0  0  0  0  0  0  0  0
   -0.5357    9.5146    4.3204 C   0  0  0  0  0  0  0  0  0  0  0  0
   -2.4848   11.1664    3.2976 C   0  0  0  0  0  0  0  0  0  0  0  0
   -0.2508   10.2521    3.1938 C   0  0  0  0  0  0  0  0  0  0  0  0
   -1.7549    9.5691    4.9568 C   0  0  0  0  0  0  0  0  0  0  0  0
   -1.2386   11.0894    2.6755 C   0  0  0  0  0  0  0  0  0  0  0  0
   -2.7428   10.4062    4.4384 C   0  0  0  0  0  0  0  0  0  0  0  0
   -3.4835   12.0130    2.7734 N   0  0  0  0  0  0  0  0  0  0  0  0
   -3.3223   12.6161    1.4655 C   0  0  0  0  0  0  0  0  0  0  0  0
   -4.6909   12.2797    3.5300 C   0  0  0  0  0  0  0  0  0  0  0  0
 14 15  2  0
  8 11  2  0
  9 10  1  0
  9 13  1  0
 22 17  1  0
 22 23  1  0
 22 24  1  0
 10 11  1  0
 10 12  1  0
  1 15  1  0
  1  3  1  0
  1  2  1  0
 15 16  1  0
 16 18  2  0
 16 19  1  0
  3  4  2  0
 17 20  2  0
 17 21  1  0
 18 20  1  0
 19 21  2  0
  4  5  1  0
  4  6  1  0
  6  7  2  0
  7 11  1  0
M  END
> <PUBCHEM_COMPOUND_CID>
444732

> <PUBCHEM_CONFORMER_RMSD>
0.8

> <PUBCHEM_CONFORMER_DIVERSEORDER>
2
40
76
12
44
10
59
54
7
73
38
27
93
70
18
22
43
90
77
26
35
80
60
14
3
96
31
83
49
4
58
69
6
5
21
78
30
55
41
63
39
11
20
89
45
75
84
37
65
48
28
15
57
32
91
72
17
42
8
9
16
13
52
53
33
85
92
29
56
86
81
1
71
87
23
97
79
47
94
68
19
50
46
24
36
62
67
34
74
88
51
66
95
25
61
82
98
64

> <PUBCHEM_MMFF94_PARTIAL_CHARGES>
30
1 -0.57
11 0.1
12 -0.15
13 -0.15
14 -0.15
15 -0.15
16 -0.14
17 0.14
18 0.37
19 0.37
2 -0.57
20 -0.15
21 -0.14
22 0.62
24 0.15
28 0.15
29 0.15
3 -0.44
30 0.15
31 0.15
4 -0.84
41 0.15
42 0.15
43 0.37
44 0.4
5 -0.39
6 0.2
7 0.42
8 0.09
9 -0.29

> <PUBCHEM_EFFECTIVE_ROTOR_COUNT>
7

> <PUBCHEM_PHARMACOPHORE_FEATURES>
7
1 1 acceptor
1 10 hydrophobe
1 17 hydrophobe
1 2 acceptor
1 4 cation
1 5 donor
6 8 11 12 13 14 15 rings

> <PUBCHEM_HEAVY_ATOM_COUNT>
22

> <PUBCHEM_ATOM_DEF_STEREO_COUNT>
1

> <PUBCHEM_ATOM_UDEF_STEREO_COUNT>
0

> <PUBCHEM_BOND_DEF_STEREO_COUNT>
2

> <PUBCHEM_BOND_UDEF_STEREO_COUNT>
0

> <PUBCHEM_ISOTOPIC_ATOM_COUNT>
0

> <PUBCHEM_COMPONENT_COUNT>
1

> <PUBCHEM_CACTVS_TAUTO_COUNT>
9

> <PUBCHEM_CONFORMER_ID>
0006C93C00000002

> <PUBCHEM_MMFF94_ENERGY>
68.5736

> <PUBCHEM_FEATURE_SELFOVERLAP>
35.52

> <PUBCHEM_SHAPE_FINGERPRINT>
10319926 262 15697732496763557303
10692045 39 11815635055283359444
12293681 160 12973598932778199301
12403259 118 12319444550194199881
12592606 108 18410855504254728187
12596602 18 17131834304279926931
12633257 1 14907895015762341657
12760667 363 18409168800717199234
12895836 83 12757141399334142939
12895837 130 11025807491535449987
13103583 49 16773795926253527159
13533116 47 18124311864596212585
13540713 4 18268967891206584945
13673619 4 18130787854560239896
13690498 29 18187078447376276677
13757389 114 17752197293529989333
14123256 34 18334017211271614963
14251764 30 18413387648445131050
14420673 8 18410295830955217299
14765038 42 14764051377869384406
14931854 50 17458337533417374899
15061688 2 9151177566536318361
15188451 53 16845284008419407207
15238133 3 12967125056148805194
17492 54 14706922956090611105
17780758 139 17561361751364416001
1813 80 18341623632459686820
193927 3 18334573581498500097
19784866 240 18335702788862333573
20871999 31 16443056201953700861
21033648 29 13973701524307103169
21054139 6 18041841706575929146
21298829 104 8142096376683825887
21307412 95 17895472635511529595
21401589 2 10591765411262862869
21403212 168 15554450656981572695
21637258 2 18272649064820128705
22765269 38 9871756779986210251
22950370 63 18342741823174253368
23522609 53 18123222110744769216
23559900 14 16661202702150013749
2748736 6 8574717888096135782
2767999 5 8070029952208260022
2838139 119 11530478956365527086
312425 83 14347452915209619779
3472631 163 11169907286595898211
351380 3 18412823590448124066
3737641 26 17987805090320306142
393628 179 7853571254228018870
393628 194 9007055794471491195
4107672 100 17604143715159178813
465052 167 18342180015428633199
474 4 10303825306196850713
474113 269 17773867770798226359
484985 159 18340482249728134233
5104073 3 14404600174171725018
54039377 194 18413111641758503542
543368 44 10809331245035261055
6327066 14 9007056859474492474
636775 8 18270689671814971022
77188 2 18341611563786720841
7970288 3 18413103974361184510
8217 86 17967816075936971442
999808 66 18335990830338241987

> <PUBCHEM_SHAPE_MULTIPOLES>
425.18
16.88
2.68
1.47
16.09
1.23
0
-19.37
-0.29
-0.05
0.04
-0.97
0.03
0.23

> <PUBCHEM_SHAPE_SELFOVERLAP>
868.487

> <PUBCHEM_SHAPE_VOLUME>
246.3

> <PUBCHEM_COORDINATE_TYPE>
2
5
10

> <minimizedAffinity>
-7.16297

> <CNNscore>
0.8015060425

> <CNNaffinity>
6.6140136719

> <CNN_VS>
5.3011717796

> <CNNaffinity_variance>
0.2340017557

$$$$
444732


 24 24  0  0  0  0  0  0  0  0999 V2000
    0.4001    6.9840    4.7260 C   0  0  0  0  0  0  0  0  0  0  0  0
    0.5261    6.2098    3.4130 C   0  0  0  0  0  0  0  0  0  0  0  0
   -0.4091    6.1906    5.7214 C   0  0  0  0  0  0  0  0  0  0  0  0
   -0.1699    6.0129    7.0385 C   0  0  0  0  0  0  0  0  0  0  0  0
    1.0312    6.5708    7.7569 C   0  0  0  0  0  0  0  0  0  0  0  0
   -1.1212    5.2201    7.8230 C   0  0  0  0  0  0  0  0  0  0  0  0
   -0.9036    4.6913    9.0372 C   0  0  0  0  0  0  0  0  0  0  0  0
   -2.7288    3.1524    9.1107 O   0  0  0  0  0  0  0  0  0  0  0  0
   -2.9826    3.4575   11.7886 O   0  0  0  0  0  0  0  0  0  0  0  0
   -2.0006    4.1482   11.0651 N   0  0  0  0  0  0  0  0  0  0  0  0
   -1.9747    3.9080    9.7148 C   0  0  0  0  0  0  0  0  0  0  0  0
   -1.4488    4.8286   11.5754 H   0  0  0  0  0  0  0  0  0  0  0  0
   -2.4598    2.7041   12.1115 H   0  0  0  0  0  0  0  0  0  0  0  0
   -1.2942    8.3790    3.7197 O   0  0  0  0  0  0  0  0  0  0  0  0
   -0.3345    8.3054    4.4870 C   0  0  0  0  0  0  0  0  0  0  0  0
    0.0990    9.5379    5.2076 C   0  0  0  0  0  0  0  0  0  0  0  0
    0.8988   11.8117    6.5354 C   0  0  0  0  0  0  0  0  0  0  0  0
   -0.8211   10.5410    5.4109 C   0  0  0  0  0  0  0  0  0  0  0  0
    1.4025    9.6248    5.6406 C   0  0  0  0  0  0  0  0  0  0  0  0
   -0.4158   11.6935    6.0838 C   0  0  0  0  0  0  0  0  0  0  0  0
    1.8079   10.7773    6.3137 C   0  0  0  0  0  0  0  0  0  0  0  0
    1.3086   12.9772    7.2158 N   0  0  0  0  0  0  0  0  0  0  0  0
    0.9585   14.2872    6.7041 C   0  0  0  0  0  0  0  0  0  0  0  0
    2.0732   12.8798    8.4435 C   0  0  0  0  0  0  0  0  0  0  0  0
 14 15  2  0
  8 11  2  0
  9 10  1  0
  9 13  1  0
 22 17  1  0
 22 23  1  0
 22 24  1  0
 10 11  1  0
 10 12  1  0
  1 15  1  0
  1  3  1  0
  1  2  1  0
 15 16  1  0
 16 18  2  0
 16 19  1  0
  3  4  2  0
 17 20  2  0
 17 21  1  0
 18 20  1  0
 19 21  2  0
  4  5  1  0
  4  6  1  0
  6  7  2  0
  7 11  1  0
M  END
> <PUBCHEM_COMPOUND_CID>
444732

> <PUBCHEM_CONFORMER_RMSD>
0.8

> <PUBCHEM_CONFORMER_DIVERSEORDER>
2
40
76
12
44
10
59
54
7
73
38
27
93
70
18
22
43
90
77
26
35
80
60
14
3
96
31
83
49
4
58
69
6
5
21
78
30
55
41
63
39
11
20
89
45
75
84
37
65
48
28
15
57
32
91
72
17
42
8
9
16
13
52
53
33
85
92
29
56
86
81
1
71
87
23
97
79
47
94
68
19
50
46
24
36
62
67
34
74
88
51
66
95
25
61
82
98
64

> <PUBCHEM_MMFF94_PARTIAL_CHARGES>
30
1 -0.57
11 0.1
12 -0.15
13 -0.15
14 -0.15
15 -0.15
16 -0.14
17 0.14
18 0.37
19 0.37
2 -0.57
20 -0.15
21 -0.14
22 0.62
24 0.15
28 0.15
29 0.15
3 -0.44
30 0.15
31 0.15
4 -0.84
41 0.15
42 0.15
43 0.37
44 0.4
5 -0.39
6 0.2
7 0.42
8 0.09
9 -0.29

> <PUBCHEM_EFFECTIVE_ROTOR_COUNT>
7

> <PUBCHEM_PHARMACOPHORE_FEATURES>
7
1 1 acceptor
1 10 hydrophobe
1 17 hydrophobe
1 2 acceptor
1 4 cation
1 5 donor
6 8 11 12 13 14 15 rings

> <PUBCHEM_HEAVY_ATOM_COUNT>
22

> <PUBCHEM_ATOM_DEF_STEREO_COUNT>
1

> <PUBCHEM_ATOM_UDEF_STEREO_COUNT>
0

> <PUBCHEM_BOND_DEF_STEREO_COUNT>
2

> <PUBCHEM_BOND_UDEF_STEREO_COUNT>
0

> <PUBCHEM_ISOTOPIC_ATOM_COUNT>
0

> <PUBCHEM_COMPONENT_COUNT>
1

> <PUBCHEM_CACTVS_TAUTO_COUNT>
9

> <PUBCHEM_CONFORMER_ID>
0006C93C00000002

> <PUBCHEM_MMFF94_ENERGY>
68.5736

> <PUBCHEM_FEATURE_SELFOVERLAP>
35.52

> <PUBCHEM_SHAPE_FINGERPRINT>
10319926 262 15697732496763557303
10692045 39 11815635055283359444
12293681 160 12973598932778199301
12403259 118 12319444550194199881
12592606 108 18410855504254728187
12596602 18 17131834304279926931
12633257 1 14907895015762341657
12760667 363 18409168800717199234
12895836 83 12757141399334142939
12895837 130 11025807491535449987
13103583 49 16773795926253527159
13533116 47 18124311864596212585
13540713 4 18268967891206584945
13673619 4 18130787854560239896
13690498 29 18187078447376276677
13757389 114 17752197293529989333
14123256 34 18334017211271614963
14251764 30 18413387648445131050
14420673 8 18410295830955217299
14765038 42 14764051377869384406
14931854 50 17458337533417374899
15061688 2 9151177566536318361
15188451 53 16845284008419407207
15238133 3 12967125056148805194
17492 54 14706922956090611105
17780758 139 17561361751364416001
1813 80 18341623632459686820
193927 3 18334573581498500097
19784866 240 18335702788862333573
20871999 31 16443056201953700861
21033648 29 13973701524307103169
21054139 6 18041841706575929146
21298829 104 8142096376683825887
21307412 95 17895472635511529595
21401589 2 10591765411262862869
21403212 168 15554450656981572695
21637258 2 18272649064820128705
22765269 38 9871756779986210251
22950370 63 18342741823174253368
23522609 53 18123222110744769216
23559900 14 16661202702150013749
2748736 6 8574717888096135782
2767999 5 8070029952208260022
2838139 119 11530478956365527086
312425 83 14347452915209619779
3472631 163 11169907286595898211
351380 3 18412823590448124066
3737641 26 17987805090320306142
393628 179 7853571254228018870
393628 194 9007055794471491195
4107672 100 17604143715159178813
465052 167 18342180015428633199
474 4 10303825306196850713
474113 269 17773867770798226359
484985 159 18340482249728134233
5104073 3 14404600174171725018
54039377 194 18413111641758503542
543368 44 10809331245035261055
6327066 14 9007056859474492474
636775 8 18270689671814971022
77188 2 18341611563786720841
7970288 3 18413103974361184510
8217 86 17967816075936971442
999808 66 18335990830338241987

> <PUBCHEM_SHAPE_MULTIPOLES>
425.18
16.88
2.68
1.47
16.09
1.23
0
-19.37
-0.29
-0.05
0.04
-0.97
0.03
0.23

> <PUBCHEM_SHAPE_SELFOVERLAP>
868.487

> <PUBCHEM_SHAPE_VOLUME>
246.3

> <PUBCHEM_COORDINATE_TYPE>
2
5
10

> <minimizedAffinity>
-8.47959

> <CNNscore>
0.7922536731

> <CNNaffinity>
6.6673717499

> <CNN_VS>
5.2822499275

> <CNNaffinity_variance>
0.3744226992

$$$$
444732


 24 24  0  0  0  0  0  0  0  0999 V2000
    0.3982    5.8765    5.7737 C   0  0  0  0  0  0  0  0  0  0  0  0
   -0.6903    5.7904    4.7027 C   0  0  0  0  0  0  0  0  0  0  0  0
   -0.1556    5.4563    7.1123 C   0  0  0  0  0  0  0  0  0  0  0  0
   -1.4440    5.4483    7.5170 C   0  0  0  0  0  0  0  0  0  0  0  0
   -2.5940    5.9246    6.6682 C   0  0  0  0  0  0  0  0  0  0  0  0
   -1.7521    4.9628    8.8654 C   0  0  0  0  0  0  0  0  0  0  0  0
   -2.0683    3.7030    9.2032 C   0  0  0  0  0  0  0  0  0  0  0  0
   -1.9155    4.0103   11.5669 O   0  0  0  0  0  0  0  0  0  0  0  0
   -3.4642    1.8388   12.0300 O   0  0  0  0  0  0  0  0  0  0  0  0
   -3.1460    2.2437   10.7264 N   0  0  0  0  0  0  0  0  0  0  0  0
   -2.3538    3.3589   10.6245 C   0  0  0  0  0  0  0  0  0  0  0  0
   -3.4501    1.6392    9.9715 H   0  0  0  0  0  0  0  0  0  0  0  0
   -4.3385    2.2523   12.1297 H   0  0  0  0  0  0  0  0  0  0  0  0
    1.8589    7.6087    6.6072 O   0  0  0  0  0  0  0  0  0  0  0  0
    0.8849    7.3210    5.9117 C   0  0  0  0  0  0  0  0  0  0  0  0
    0.1841    8.4149    5.1778 C   0  0  0  0  0  0  0  0  0  0  0  0
   -1.1089   10.4316    3.8234 C   0  0  0  0  0  0  0  0  0  0  0  0
   -1.1141    8.7143    5.5229 C   0  0  0  0  0  0  0  0  0  0  0  0
    0.8625    9.0821    4.1834 C   0  0  0  0  0  0  0  0  0  0  0  0
   -1.7696    9.7363    4.8363 C   0  0  0  0  0  0  0  0  0  0  0  0
    0.2072   10.1043    3.4969 C   0  0  0  0  0  0  0  0  0  0  0  0
   -1.7717   11.4649    3.1292 N   0  0  0  0  0  0  0  0  0  0  0  0
   -3.2184   11.4820    3.0447 C   0  0  0  0  0  0  0  0  0  0  0  0
   -1.0152   12.5313    2.5033 C   0  0  0  0  0  0  0  0  0  0  0  0
 14 15  2  0
  8 11  2  0
  9 10  1  0
  9 13  1  0
 22 17  1  0
 22 23  1  0
 22 24  1  0
 10 11  1  0
 10 12  1  0
  1 15  1  0
  1  3  1  0
  1  2  1  0
 15 16  1  0
 16 18  2  0
 16 19  1  0
  3  4  2  0
 17 20  2  0
 17 21  1  0
 18 20  1  0
 19 21  2  0
  4  5  1  0
  4  6  1  0
  6  7  2  0
  7 11  1  0
M  END
> <PUBCHEM_COMPOUND_CID>
444732

> <PUBCHEM_CONFORMER_RMSD>
0.8

> <PUBCHEM_CONFORMER_DIVERSEORDER>
2
40
76
12
44
10
59
54
7
73
38
27
93
70
18
22
43
90
77
26
35
80
60
14
3
96
31
83
49
4
58
69
6
5
21
78
30
55
41
63
39
11
20
89
45
75
84
37
65
48
28
15
57
32
91
72
17
42
8
9
16
13
52
53
33
85
92
29
56
86
81
1
71
87
23
97
79
47
94
68
19
50
46
24
36
62
67
34
74
88
51
66
95
25
61
82
98
64

> <PUBCHEM_MMFF94_PARTIAL_CHARGES>
30
1 -0.57
11 0.1
12 -0.15
13 -0.15
14 -0.15
15 -0.15
16 -0.14
17 0.14
18 0.37
19 0.37
2 -0.57
20 -0.15
21 -0.14
22 0.62
24 0.15
28 0.15
29 0.15
3 -0.44
30 0.15
31 0.15
4 -0.84
41 0.15
42 0.15
43 0.37
44 0.4
5 -0.39
6 0.2
7 0.42
8 0.09
9 -0.29

> <PUBCHEM_EFFECTIVE_ROTOR_COUNT>
7

> <PUBCHEM_PHARMACOPHORE_FEATURES>
7
1 1 acceptor
1 10 hydrophobe
1 17 hydrophobe
1 2 acceptor
1 4 cation
1 5 donor
6 8 11 12 13 14 15 rings

> <PUBCHEM_HEAVY_ATOM_COUNT>
22

> <PUBCHEM_ATOM_DEF_STEREO_COUNT>
1

> <PUBCHEM_ATOM_UDEF_STEREO_COUNT>
0

> <PUBCHEM_BOND_DEF_STEREO_COUNT>
2

> <PUBCHEM_BOND_UDEF_STEREO_COUNT>
0

> <PUBCHEM_ISOTOPIC_ATOM_COUNT>
0

> <PUBCHEM_COMPONENT_COUNT>
1

> <PUBCHEM_CACTVS_TAUTO_COUNT>
9

> <PUBCHEM_CONFORMER_ID>
0006C93C00000002

> <PUBCHEM_MMFF94_ENERGY>
68.5736

> <PUBCHEM_FEATURE_SELFOVERLAP>
35.52

> <PUBCHEM_SHAPE_FINGERPRINT>
10319926 262 15697732496763557303
10692045 39 11815635055283359444
12293681 160 12973598932778199301
12403259 118 12319444550194199881
12592606 108 18410855504254728187
12596602 18 17131834304279926931
12633257 1 14907895015762341657
12760667 363 18409168800717199234
12895836 83 12757141399334142939
12895837 130 11025807491535449987
13103583 49 16773795926253527159
13533116 47 18124311864596212585
13540713 4 18268967891206584945
13673619 4 18130787854560239896
13690498 29 18187078447376276677
13757389 114 17752197293529989333
14123256 34 18334017211271614963
14251764 30 18413387648445131050
14420673 8 18410295830955217299
14765038 42 14764051377869384406
14931854 50 17458337533417374899
15061688 2 9151177566536318361
15188451 53 16845284008419407207
15238133 3 12967125056148805194
17492 54 14706922956090611105
17780758 139 17561361751364416001
1813 80 18341623632459686820
193927 3 18334573581498500097
19784866 240 18335702788862333573
20871999 31 16443056201953700861
21033648 29 13973701524307103169
21054139 6 18041841706575929146
21298829 104 8142096376683825887
21307412 95 17895472635511529595
21401589 2 10591765411262862869
21403212 168 15554450656981572695
21637258 2 18272649064820128705
22765269 38 9871756779986210251
22950370 63 18342741823174253368
23522609 53 18123222110744769216
23559900 14 16661202702150013749
2748736 6 8574717888096135782
2767999 5 8070029952208260022
2838139 119 11530478956365527086
312425 83 14347452915209619779
3472631 163 11169907286595898211
351380 3 18412823590448124066
3737641 26 17987805090320306142
393628 179 7853571254228018870
393628 194 9007055794471491195
4107672 100 17604143715159178813
465052 167 18342180015428633199
474 4 10303825306196850713
474113 269 17773867770798226359
484985 159 18340482249728134233
5104073 3 14404600174171725018
54039377 194 18413111641758503542
543368 44 10809331245035261055
6327066 14 9007056859474492474
636775 8 18270689671814971022
77188 2 18341611563786720841
7970288 3 18413103974361184510
8217 86 17967816075936971442
999808 66 18335990830338241987

> <PUBCHEM_SHAPE_MULTIPOLES>
425.18
16.88
2.68
1.47
16.09
1.23
0
-19.37
-0.29
-0.05
0.04
-0.97
0.03
0.23

> <PUBCHEM_SHAPE_SELFOVERLAP>
868.487

> <PUBCHEM_SHAPE_VOLUME>
246.3

> <PUBCHEM_COORDINATE_TYPE>
2
5
10

> <minimizedAffinity>
-6.50397

> <CNNscore>
0.7915275097

> <CNNaffinity>
6.7326378822

> <CNN_VS>
5.3290681839

> <CNNaffinity_variance>
0.3263524771

$$$$
444732


 24 24  0  0  0  0  0  0  0  0999 V2000
    0.3801    6.9565    4.5879 C   0  0  0  0  0  0  0  0  0  0  0  0
    0.4582    6.1759    3.2750 C   0  0  0  0  0  0  0  0  0  0  0  0
   -0.4106    6.1773    5.6092 C   0  0  0  0  0  0  0  0  0  0  0  0
   -0.1535    6.0280    6.9265 C   0  0  0  0  0  0  0  0  0  0  0  0
    1.0522    6.6090    7.6183 C   0  0  0  0  0  0  0  0  0  0  0  0
   -1.0889    5.2442    7.7387 C   0  0  0  0  0  0  0  0  0  0  0  0
   -0.8430    4.7188    8.9490 C   0  0  0  0  0  0  0  0  0  0  0  0
   -2.6492    3.1617    9.0821 O   0  0  0  0  0  0  0  0  0  0  0  0
   -2.8915    3.5485   11.7504 O   0  0  0  0  0  0  0  0  0  0  0  0
   -1.9220    4.2274   10.9996 N   0  0  0  0  0  0  0  0  0  0  0  0
   -1.9009    3.9449    9.6574 C   0  0  0  0  0  0  0  0  0  0  0  0
   -1.3754    4.9301   11.4848 H   0  0  0  0  0  0  0  0  0  0  0  0
   -2.3580    2.8119   12.0939 H   0  0  0  0  0  0  0  0  0  0  0  0
   -1.2920    8.3807    3.5856 O   0  0  0  0  0  0  0  0  0  0  0  0
   -0.3438    8.2864    4.3648 C   0  0  0  0  0  0  0  0  0  0  0  0
    0.0863    9.5020    5.1156 C   0  0  0  0  0  0  0  0  0  0  0  0
    0.8794   11.7433    6.5016 C   0  0  0  0  0  0  0  0  0  0  0  0
    1.4009    9.6024    5.5105 C   0  0  0  0  0  0  0  0  0  0  0  0
   -0.8481   10.4758    5.3853 C   0  0  0  0  0  0  0  0  0  0  0  0
    1.8029   10.7383    6.2131 C   0  0  0  0  0  0  0  0  0  0  0  0
   -0.4462   11.6118    6.0877 C   0  0  0  0  0  0  0  0  0  0  0  0
    1.2859   12.8918    7.2120 N   0  0  0  0  0  0  0  0  0  0  0  0
    2.0859   12.7664    8.4141 C   0  0  0  0  0  0  0  0  0  0  0  0
    0.9210   14.2133    6.7414 C   0  0  0  0  0  0  0  0  0  0  0  0
 14 15  2  0
  8 11  2  0
  9 10  1  0
  9 13  1  0
 22 17  1  0
 22 23  1  0
 22 24  1  0
 10 11  1  0
 10 12  1  0
  1 15  1  0
  1  3  1  0
  1  2  1  0
 15 16  1  0
 16 18  2  0
 16 19  1  0
  3  4  2  0
 17 20  2  0
 17 21  1  0
 18 20  1  0
 19 21  2  0
  4  5  1  0
  4  6  1  0
  6  7  2  0
  7 11  1  0
M  END
> <PUBCHEM_COMPOUND_CID>
444732

> <PUBCHEM_CONFORMER_RMSD>
0.8

> <PUBCHEM_CONFORMER_DIVERSEORDER>
2
40
76
12
44
10
59
54
7
73
38
27
93
70
18
22
43
90
77
26
35
80
60
14
3
96
31
83
49
4
58
69
6
5
21
78
30
55
41
63
39
11
20
89
45
75
84
37
65
48
28
15
57
32
91
72
17
42
8
9
16
13
52
53
33
85
92
29
56
86
81
1
71
87
23
97
79
47
94
68
19
50
46
24
36
62
67
34
74
88
51
66
95
25
61
82
98
64

> <PUBCHEM_MMFF94_PARTIAL_CHARGES>
30
1 -0.57
11 0.1
12 -0.15
13 -0.15
14 -0.15
15 -0.15
16 -0.14
17 0.14
18 0.37
19 0.37
2 -0.57
20 -0.15
21 -0.14
22 0.62
24 0.15
28 0.15
29 0.15
3 -0.44
30 0.15
31 0.15
4 -0.84
41 0.15
42 0.15
43 0.37
44 0.4
5 -0.39
6 0.2
7 0.42
8 0.09
9 -0.29

> <PUBCHEM_EFFECTIVE_ROTOR_COUNT>
7

> <PUBCHEM_PHARMACOPHORE_FEATURES>
7
1 1 acceptor
1 10 hydrophobe
1 17 hydrophobe
1 2 acceptor
1 4 cation
1 5 donor
6 8 11 12 13 14 15 rings

> <PUBCHEM_HEAVY_ATOM_COUNT>
22

> <PUBCHEM_ATOM_DEF_STEREO_COUNT>
1

> <PUBCHEM_ATOM_UDEF_STEREO_COUNT>
0

> <PUBCHEM_BOND_DEF_STEREO_COUNT>
2

> <PUBCHEM_BOND_UDEF_STEREO_COUNT>
0

> <PUBCHEM_ISOTOPIC_ATOM_COUNT>
0

> <PUBCHEM_COMPONENT_COUNT>
1

> <PUBCHEM_CACTVS_TAUTO_COUNT>
9

> <PUBCHEM_CONFORMER_ID>
0006C93C00000002

> <PUBCHEM_MMFF94_ENERGY>
68.5736

> <PUBCHEM_FEATURE_SELFOVERLAP>
35.52

> <PUBCHEM_SHAPE_FINGERPRINT>
10319926 262 15697732496763557303
10692045 39 11815635055283359444
12293681 160 12973598932778199301
12403259 118 12319444550194199881
12592606 108 18410855504254728187
12596602 18 17131834304279926931
12633257 1 14907895015762341657
12760667 363 18409168800717199234
12895836 83 12757141399334142939
12895837 130 11025807491535449987
13103583 49 16773795926253527159
13533116 47 18124311864596212585
13540713 4 18268967891206584945
13673619 4 18130787854560239896
13690498 29 18187078447376276677
13757389 114 17752197293529989333
14123256 34 18334017211271614963
14251764 30 18413387648445131050
14420673 8 18410295830955217299
14765038 42 14764051377869384406
14931854 50 17458337533417374899
15061688 2 9151177566536318361
15188451 53 16845284008419407207
15238133 3 12967125056148805194
17492 54 14706922956090611105
17780758 139 17561361751364416001
1813 80 18341623632459686820
193927 3 18334573581498500097
19784866 240 18335702788862333573
20871999 31 16443056201953700861
21033648 29 13973701524307103169
21054139 6 18041841706575929146
21298829 104 8142096376683825887
21307412 95 17895472635511529595
21401589 2 10591765411262862869
21403212 168 15554450656981572695
21637258 2 18272649064820128705
22765269 38 9871756779986210251
22950370 63 18342741823174253368
23522609 53 18123222110744769216
23559900 14 16661202702150013749
2748736 6 8574717888096135782
2767999 5 8070029952208260022
2838139 119 11530478956365527086
312425 83 14347452915209619779
3472631 163 11169907286595898211
351380 3 18412823590448124066
3737641 26 17987805090320306142
393628 179 7853571254228018870
393628 194 9007055794471491195
4107672 100 17604143715159178813
465052 167 18342180015428633199
474 4 10303825306196850713
474113 269 17773867770798226359
484985 159 18340482249728134233
5104073 3 14404600174171725018
54039377 194 18413111641758503542
543368 44 10809331245035261055
6327066 14 9007056859474492474
636775 8 18270689671814971022
77188 2 18341611563786720841
7970288 3 18413103974361184510
8217 86 17967816075936971442
999808 66 18335990830338241987

> <PUBCHEM_SHAPE_MULTIPOLES>
425.18
16.88
2.68
1.47
16.09
1.23
0
-19.37
-0.29
-0.05
0.04
-0.97
0.03
0.23

> <PUBCHEM_SHAPE_SELFOVERLAP>
868.487

> <PUBCHEM_SHAPE_VOLUME>
246.3

> <PUBCHEM_COORDINATE_TYPE>
2
5
10

> <minimizedAffinity>
-8.44963

> <CNNscore>
0.7867960930

> <CNNaffinity>
6.6429629326

> <CNN_VS>
5.2266573906

> <CNNaffinity_variance>
0.3326126635

$$$$
444732


 24 24  0  0  0  0  0  0  0  0999 V2000
    1.6210    7.0409    4.2489 C   0  0  0  0  0  0  0  0  0  0  0  0
    1.1508    6.9317    2.7976 C   0  0  0  0  0  0  0  0  0  0  0  0
    0.6194    6.3899    5.1700 C   0  0  0  0  0  0  0  0  0  0  0  0
    0.6043    6.3904    6.5203 C   0  0  0  0  0  0  0  0  0  0  0  0
    1.6654    7.0375    7.3720 C   0  0  0  0  0  0  0  0  0  0  0  0
   -0.4975    5.7119    7.2091 C   0  0  0  0  0  0  0  0  0  0  0  0
   -0.4586    5.1847    8.4427 C   0  0  0  0  0  0  0  0  0  0  0  0
   -2.6778    4.3060    8.3536 O   0  0  0  0  0  0  0  0  0  0  0  0
   -2.5874    3.5960   10.9644 O   0  0  0  0  0  0  0  0  0  0  0  0
   -1.4971    4.2157   10.3384 N   0  0  0  0  0  0  0  0  0  0  0  0
   -1.6672    4.5260    9.0131 C   0  0  0  0  0  0  0  0  0  0  0  0
   -0.7095    4.4619   10.9274 H   0  0  0  0  0  0  0  0  0  0  0  0
   -2.3189    2.6642   10.8941 H   0  0  0  0  0  0  0  0  0  0  0  0
    2.7777    8.9835    5.0959 O   0  0  0  0  0  0  0  0  0  0  0  0
    1.7292    8.5125    4.6555 C   0  0  0  0  0  0  0  0  0  0  0  0
    0.5504    9.4144    4.5033 C   0  0  0  0  0  0  0  0  0  0  0  0
   -1.6247   11.0770    4.2230 C   0  0  0  0  0  0  0  0  0  0  0  0
    0.0966   10.0987    5.6079 C   0  0  0  0  0  0  0  0  0  0  0  0
   -0.0386    9.5270    3.2644 C   0  0  0  0  0  0  0  0  0  0  0  0
   -1.0059   10.9413    5.4659 C   0  0  0  0  0  0  0  0  0  0  0  0
   -1.1409   10.3697    3.1224 C   0  0  0  0  0  0  0  0  0  0  0  0
   -2.7394   11.9289    4.0795 N   0  0  0  0  0  0  0  0  0  0  0  0
   -4.0185   11.3983    3.6520 C   0  0  0  0  0  0  0  0  0  0  0  0
   -2.6240   13.3441    4.3714 C   0  0  0  0  0  0  0  0  0  0  0  0
 14 15  2  0
  8 11  2  0
  9 10  1  0
  9 13  1  0
 22 17  1  0
 22 23  1  0
 22 24  1  0
 10 11  1  0
 10 12  1  0
  1 15  1  0
  1  3  1  0
  1  2  1  0
 15 16  1  0
 16 18  2  0
 16 19  1  0
  3  4  2  0
 17 20  2  0
 17 21  1  0
 18 20  1  0
 19 21  2  0
  4  5  1  0
  4  6  1  0
  6  7  2  0
  7 11  1  0
M  END
> <PUBCHEM_COMPOUND_CID>
444732

> <PUBCHEM_CONFORMER_RMSD>
0.8

> <PUBCHEM_CONFORMER_DIVERSEORDER>
2
40
76
12
44
10
59
54
7
73
38
27
93
70
18
22
43
90
77
26
35
80
60
14
3
96
31
83
49
4
58
69
6
5
21
78
30
55
41
63
39
11
20
89
45
75
84
37
65
48
28
15
57
32
91
72
17
42
8
9
16
13
52
53
33
85
92
29
56
86
81
1
71
87
23
97
79
47
94
68
19
50
46
24
36
62
67
34
74
88
51
66
95
25
61
82
98
64

> <PUBCHEM_MMFF94_PARTIAL_CHARGES>
30
1 -0.57
11 0.1
12 -0.15
13 -0.15
14 -0.15
15 -0.15
16 -0.14
17 0.14
18 0.37
19 0.37
2 -0.57
20 -0.15
21 -0.14
22 0.62
24 0.15
28 0.15
29 0.15
3 -0.44
30 0.15
31 0.15
4 -0.84
41 0.15
42 0.15
43 0.37
44 0.4
5 -0.39
6 0.2
7 0.42
8 0.09
9 -0.29

> <PUBCHEM_EFFECTIVE_ROTOR_COUNT>
7

> <PUBCHEM_PHARMACOPHORE_FEATURES>
7
1 1 acceptor
1 10 hydrophobe
1 17 hydrophobe
1 2 acceptor
1 4 cation
1 5 donor
6 8 11 12 13 14 15 rings

> <PUBCHEM_HEAVY_ATOM_COUNT>
22

> <PUBCHEM_ATOM_DEF_STEREO_COUNT>
1

> <PUBCHEM_ATOM_UDEF_STEREO_COUNT>
0

> <PUBCHEM_BOND_DEF_STEREO_COUNT>
2

> <PUBCHEM_BOND_UDEF_STEREO_COUNT>
0

> <PUBCHEM_ISOTOPIC_ATOM_COUNT>
0

> <PUBCHEM_COMPONENT_COUNT>
1

> <PUBCHEM_CACTVS_TAUTO_COUNT>
9

> <PUBCHEM_CONFORMER_ID>
0006C93C00000002

> <PUBCHEM_MMFF94_ENERGY>
68.5736

> <PUBCHEM_FEATURE_SELFOVERLAP>
35.52

> <PUBCHEM_SHAPE_FINGERPRINT>
10319926 262 15697732496763557303
10692045 39 11815635055283359444
12293681 160 12973598932778199301
12403259 118 12319444550194199881
12592606 108 18410855504254728187
12596602 18 17131834304279926931
12633257 1 14907895015762341657
12760667 363 18409168800717199234
12895836 83 12757141399334142939
12895837 130 11025807491535449987
13103583 49 16773795926253527159
13533116 47 18124311864596212585
13540713 4 18268967891206584945
13673619 4 18130787854560239896
13690498 29 18187078447376276677
13757389 114 17752197293529989333
14123256 34 18334017211271614963
14251764 30 18413387648445131050
14420673 8 18410295830955217299
14765038 42 14764051377869384406
14931854 50 17458337533417374899
15061688 2 9151177566536318361
15188451 53 16845284008419407207
15238133 3 12967125056148805194
17492 54 14706922956090611105
17780758 139 17561361751364416001
1813 80 18341623632459686820
193927 3 18334573581498500097
19784866 240 18335702788862333573
20871999 31 16443056201953700861
21033648 29 13973701524307103169
21054139 6 18041841706575929146
21298829 104 8142096376683825887
21307412 95 17895472635511529595
21401589 2 10591765411262862869
21403212 168 15554450656981572695
21637258 2 18272649064820128705
22765269 38 9871756779986210251
22950370 63 18342741823174253368
23522609 53 18123222110744769216
23559900 14 16661202702150013749
2748736 6 8574717888096135782
2767999 5 8070029952208260022
2838139 119 11530478956365527086
312425 83 14347452915209619779
3472631 163 11169907286595898211
351380 3 18412823590448124066
3737641 26 17987805090320306142
393628 179 7853571254228018870
393628 194 9007055794471491195
4107672 100 17604143715159178813
465052 167 18342180015428633199
474 4 10303825306196850713
474113 269 17773867770798226359
484985 159 18340482249728134233
5104073 3 14404600174171725018
54039377 194 18413111641758503542
543368 44 10809331245035261055
6327066 14 9007056859474492474
636775 8 18270689671814971022
77188 2 18341611563786720841
7970288 3 18413103974361184510
8217 86 17967816075936971442
999808 66 18335990830338241987

> <PUBCHEM_SHAPE_MULTIPOLES>
425.18
16.88
2.68
1.47
16.09
1.23
0
-19.37
-0.29
-0.05
0.04
-0.97
0.03
0.23

> <PUBCHEM_SHAPE_SELFOVERLAP>
868.487

> <PUBCHEM_SHAPE_VOLUME>
246.3

> <PUBCHEM_COORDINATE_TYPE>
2
5
10

> <minimizedAffinity>
-7.37109

> <CNNscore>
0.7446939945

> <CNNaffinity>
6.4604945183

> <CNN_VS>
4.8110914230

> <CNNaffinity_variance>
0.1603956670

$$$$
