


 21 24  0  0  0  0  0  0  0  0999 V2000
   -9.9264   -3.3235   13.2161 O   0  0  0  0  0  0  0  0  0  0  0  0
   -8.9481   -3.7063   12.5729 C   0  0  0  0  0  0  0  0  0  0  0  0
   -7.8219   -4.2399   13.2208 N   0  0  0  0  0  0  0  0  0  0  0  0
   -6.6741   -4.8207   12.5084 C   0  0  0  0  0  0  0  0  0  0  0  0
   -5.7190   -5.6472   13.3657 C   0  0  0  0  0  0  0  0  0  0  0  0
   -5.3969   -4.9103   14.6318 C   0  0  0  0  0  0  0  0  0  0  0  0
   -4.1085   -4.8988   15.1713 C   0  0  0  0  0  0  0  0  0  0  0  0
   -3.8657   -4.2306   16.3683 C   0  0  0  0  0  0  0  0  0  0  0  0
   -4.9109   -3.5878   17.0358 C   0  0  0  0  0  0  0  0  0  0  0  0
   -6.2002   -3.6018   16.5006 C   0  0  0  0  0  0  0  0  0  0  0  0
   -6.4500   -4.2493   15.2866 C   0  0  0  0  0  0  0  0  0  0  0  0
   -7.8332   -4.3072   14.6828 C   0  0  0  0  0  0  0  0  0  0  0  0
   -8.9806   -3.6670   11.0961 C   0  0  0  0  0  0  0  0  0  0  0  0
   -9.2811   -2.5614   10.3790 N   0  0  0  0  0  0  0  0  0  0  0  0
   -9.1542   -2.8978    9.0449 O   0  0  0  0  0  0  0  0  0  0  0  0
   -8.8333   -4.2006    8.9623 C   0  0  0  0  0  0  0  0  0  0  0  0
   -8.7311   -4.7525   10.2118 C   0  0  0  0  0  0  0  0  0  0  0  0
   -8.4240   -6.1891   10.4229 C   0  0  0  0  0  0  0  0  0  0  0  0
   -7.9353   -6.8447    9.1076 C   0  0  0  0  0  0  0  0  0  0  0  0
   -8.7291   -6.3750    7.8659 C   0  0  0  0  0  0  0  0  0  0  0  0
   -8.6329   -4.8507    7.6563 C   0  0  0  0  0  0  0  0  0  0  0  0
  1  2  2  0
  2 13  1  0
  2  3  1  0
 13 14  2  0
 13 17  1  0
 14 15  1  0
 15 16  1  0
 16 17  2  0
 16 21  1  0
 17 18  1  0
 18 19  1  0
 19 20  1  0
 20 21  1  0
  3  4  1  0
  3 12  1  0
  4  5  1  0
  5  6  1  0
  6  7  2  0
  6 11  1  0
  7  8  1  0
  8  9  2  0
  9 10  1  0
 10 11  2  0
 11 12  1  0
M  END
> <minimizedAffinity>
-8.03926

> <CNNscore>
0.4027906060

> <CNNaffinity>
6.8873381615

> <CNN_VS>
2.7741551399

> <CNNaffinity_variance>
0.3740924299

$$$$



 21 24  0  0  0  0  0  0  0  0999 V2000
  -10.0685   -4.5763   13.1831 O   0  0  0  0  0  0  0  0  0  0  0  0
   -9.0111   -4.4642   12.5612 C   0  0  0  0  0  0  0  0  0  0  0  0
   -7.7821   -4.7791   13.1641 N   0  0  0  0  0  0  0  0  0  0  0  0
   -6.5003   -4.7791   12.4435 C   0  0  0  0  0  0  0  0  0  0  0  0
   -5.3433   -5.4688   13.1618 C   0  0  0  0  0  0  0  0  0  0  0  0
   -5.2880   -5.0225   14.5928 C   0  0  0  0  0  0  0  0  0  0  0  0
   -4.0770   -4.7603   15.2375 C   0  0  0  0  0  0  0  0  0  0  0  0
   -4.0742   -4.3832   16.5777 C   0  0  0  0  0  0  0  0  0  0  0  0
   -5.2779   -4.2836   17.2794 C   0  0  0  0  0  0  0  0  0  0  0  0
   -6.4891   -4.5494   16.6382 C   0  0  0  0  0  0  0  0  0  0  0  0
   -6.5048   -4.9053   15.2859 C   0  0  0  0  0  0  0  0  0  0  0  0
   -7.7902   -5.2221   14.5589 C   0  0  0  0  0  0  0  0  0  0  0  0
   -9.0355   -4.0562   11.1413 C   0  0  0  0  0  0  0  0  0  0  0  0
   -9.2687   -4.9074   10.1175 N   0  0  0  0  0  0  0  0  0  0  0  0
   -9.2678   -4.1556    8.9583 O   0  0  0  0  0  0  0  0  0  0  0  0
   -8.9861   -2.8805    9.2772 C   0  0  0  0  0  0  0  0  0  0  0  0
   -8.8048   -2.7498   10.6286 C   0  0  0  0  0  0  0  0  0  0  0  0
   -8.4446   -1.4562   11.2605 C   0  0  0  0  0  0  0  0  0  0  0  0
   -8.6279   -0.2875   10.2608 C   0  0  0  0  0  0  0  0  0  0  0  0
   -8.1519   -0.6342    8.8305 C   0  0  0  0  0  0  0  0  0  0  0  0
   -8.9127   -1.8379    8.2398 C   0  0  0  0  0  0  0  0  0  0  0  0
  1  2  2  0
  2 13  1  0
  2  3  1  0
 13 14  2  0
 13 17  1  0
 14 15  1  0
 15 16  1  0
 16 17  2  0
 16 21  1  0
 17 18  1  0
 18 19  1  0
 19 20  1  0
 20 21  1  0
  3  4  1  0
  3 12  1  0
  4  5  1  0
  5  6  1  0
  6  7  2  0
  6 11  1  0
  7  8  1  0
  8  9  2  0
  9 10  1  0
 10 11  2  0
 11 12  1  0
M  END
> <minimizedAffinity>
-4.38285

> <CNNscore>
0.3296504617

> <CNNaffinity>
6.9229483604

> <CNN_VS>
2.2821531296

> <CNNaffinity_variance>
0.9598713517

$$$$



 21 24  0  0  0  0  0  0  0  0999 V2000
   -7.3296   -2.0411   12.5007 O   0  0  0  0  0  0  0  0  0  0  0  0
   -7.8022   -3.1203   12.8605 C   0  0  0  0  0  0  0  0  0  0  0  0
   -7.4849   -3.6648   14.1158 N   0  0  0  0  0  0  0  0  0  0  0  0
   -8.1043   -4.8861   14.6515 C   0  0  0  0  0  0  0  0  0  0  0  0
   -7.8942   -5.1286   16.1439 C   0  0  0  0  0  0  0  0  0  0  0  0
   -6.4527   -4.9168   16.5008 C   0  0  0  0  0  0  0  0  0  0  0  0
   -5.7847   -5.7523   17.3990 C   0  0  0  0  0  0  0  0  0  0  0  0
   -4.4565   -5.4943   17.7268 C   0  0  0  0  0  0  0  0  0  0  0  0
   -3.7994   -4.3936   17.1718 C   0  0  0  0  0  0  0  0  0  0  0  0
   -4.4665   -3.5549   16.2772 C   0  0  0  0  0  0  0  0  0  0  0  0
   -5.7931   -3.8191   15.9224 C   0  0  0  0  0  0  0  0  0  0  0  0
   -6.5590   -2.9259   14.9753 C   0  0  0  0  0  0  0  0  0  0  0  0
   -8.7679   -3.8239   11.9913 C   0  0  0  0  0  0  0  0  0  0  0  0
  -10.0723   -3.9968   12.3008 N   0  0  0  0  0  0  0  0  0  0  0  0
  -10.6598   -4.6430   11.2301 O   0  0  0  0  0  0  0  0  0  0  0  0
   -9.7103   -4.9005   10.3142 C   0  0  0  0  0  0  0  0  0  0  0  0
   -8.4933   -4.4350   10.7367 C   0  0  0  0  0  0  0  0  0  0  0  0
   -7.2538   -4.6150    9.9406 C   0  0  0  0  0  0  0  0  0  0  0  0
   -7.5888   -5.0784    8.5012 C   0  0  0  0  0  0  0  0  0  0  0  0
   -8.7254   -6.1265    8.4519 C   0  0  0  0  0  0  0  0  0  0  0  0
  -10.0387   -5.5893    9.0547 C   0  0  0  0  0  0  0  0  0  0  0  0
  1  2  2  0
  2 13  1  0
  2  3  1  0
 13 14  2  0
 13 17  1  0
 14 15  1  0
 15 16  1  0
 16 17  2  0
 16 21  1  0
 17 18  1  0
 18 19  1  0
 19 20  1  0
 20 21  1  0
  3  4  1  0
  3 12  1  0
  4  5  1  0
  5  6  1  0
  6  7  2  0
  6 11  1  0
  7  8  1  0
  8  9  2  0
  9 10  1  0
 10 11  2  0
 11 12  1  0
M  END
> <minimizedAffinity>
-6.38530

> <CNNscore>
0.3016953170

> <CNNaffinity>
6.9402260780

> <CNN_VS>
2.0938336849

> <CNNaffinity_variance>
0.5621758699

$$$$



 21 24  0  0  0  0  0  0  0  0999 V2000
   -7.3848   -2.9232   17.2460 O   0  0  0  0  0  0  0  0  0  0  0  0
   -7.0866   -4.0513   16.8513 C   0  0  0  0  0  0  0  0  0  0  0  0
   -7.9741   -5.1288   17.0072 N   0  0  0  0  0  0  0  0  0  0  0  0
   -7.7288   -6.4696   16.4554 C   0  0  0  0  0  0  0  0  0  0  0  0
   -8.9387   -7.4000   16.4287 C   0  0  0  0  0  0  0  0  0  0  0  0
   -9.6489   -7.3571   17.7491 C   0  0  0  0  0  0  0  0  0  0  0  0
  -10.1679   -8.5088   18.3453 C   0  0  0  0  0  0  0  0  0  0  0  0
  -10.8510   -8.4138   19.5547 C   0  0  0  0  0  0  0  0  0  0  0  0
  -11.0310   -7.1684   20.1613 C   0  0  0  0  0  0  0  0  0  0  0  0
  -10.5168   -6.0157   19.5650 C   0  0  0  0  0  0  0  0  0  0  0  0
   -9.8081   -6.1030   18.3626 C   0  0  0  0  0  0  0  0  0  0  0  0
   -9.2536   -4.8793   17.6724 C   0  0  0  0  0  0  0  0  0  0  0  0
   -5.8068   -4.2662   16.1446 C   0  0  0  0  0  0  0  0  0  0  0  0
   -4.5977   -4.2225   16.7471 N   0  0  0  0  0  0  0  0  0  0  0  0
   -3.6546   -4.5249   15.7837 O   0  0  0  0  0  0  0  0  0  0  0  0
   -4.2849   -4.6960   14.6088 C   0  0  0  0  0  0  0  0  0  0  0  0
   -5.6359   -4.5249   14.7566 C   0  0  0  0  0  0  0  0  0  0  0  0
   -6.5782   -4.6182   13.6138 C   0  0  0  0  0  0  0  0  0  0  0  0
   -5.8799   -5.2333   12.3758 C   0  0  0  0  0  0  0  0  0  0  0  0
   -4.4359   -4.7160   12.1761 C   0  0  0  0  0  0  0  0  0  0  0  0
   -3.5336   -5.0280   13.3866 C   0  0  0  0  0  0  0  0  0  0  0  0
  1  2  2  0
  2 13  1  0
  2  3  1  0
 13 14  2  0
 13 17  1  0
 14 15  1  0
 15 16  1  0
 16 17  2  0
 16 21  1  0
 17 18  1  0
 18 19  1  0
 19 20  1  0
 20 21  1  0
  3  4  1  0
  3 12  1  0
  4  5  1  0
  5  6  1  0
  6  7  2  0
  6 11  1  0
  7  8  1  0
  8  9  2  0
  9 10  1  0
 10 11  2  0
 11 12  1  0
M  END
> <minimizedAffinity>
27.14971

> <CNNscore>
0.2565780282

> <CNNaffinity>
5.9341292381

> <CNN_VS>
1.5225671530

> <CNNaffinity_variance>
0.3770653009

$$$$



 21 24  0  0  0  0  0  0  0  0999 V2000
   -4.3653   -5.9681   11.2852 O   0  0  0  0  0  0  0  0  0  0  0  0
   -5.2518   -5.5269   12.0180 C   0  0  0  0  0  0  0  0  0  0  0  0
   -6.5873   -5.4761   11.5855 N   0  0  0  0  0  0  0  0  0  0  0  0
   -7.7061   -5.0720   12.4498 C   0  0  0  0  0  0  0  0  0  0  0  0
   -9.0986   -5.4033   11.9191 C   0  0  0  0  0  0  0  0  0  0  0  0
   -9.2082   -5.0013   10.4781 C   0  0  0  0  0  0  0  0  0  0  0  0
  -10.3628   -4.4066    9.9640 C   0  0  0  0  0  0  0  0  0  0  0  0
  -10.4310   -4.0838    8.6114 C   0  0  0  0  0  0  0  0  0  0  0  0
   -9.3543   -4.3690    7.7684 C   0  0  0  0  0  0  0  0  0  0  0  0
   -8.2012   -4.9673    8.2794 C   0  0  0  0  0  0  0  0  0  0  0  0
   -8.1129   -5.2734    9.6410 C   0  0  0  0  0  0  0  0  0  0  0  0
   -6.8931   -5.9402   10.2316 C   0  0  0  0  0  0  0  0  0  0  0  0
   -4.9222   -5.1054   13.3953 C   0  0  0  0  0  0  0  0  0  0  0  0
   -3.6655   -4.8551   13.8254 N   0  0  0  0  0  0  0  0  0  0  0  0
   -3.7634   -4.4361   15.1385 O   0  0  0  0  0  0  0  0  0  0  0  0
   -5.0554   -4.4848   15.5064 C   0  0  0  0  0  0  0  0  0  0  0  0
   -5.8367   -4.9191   14.4685 C   0  0  0  0  0  0  0  0  0  0  0  0
   -7.3029   -5.1057   14.6018 C   0  0  0  0  0  0  0  0  0  0  0  0
   -7.8227   -4.4521   15.9062 C   0  0  0  0  0  0  0  0  0  0  0  0
   -6.8795   -4.6741   17.1119 C   0  0  0  0  0  0  0  0  0  0  0  0
   -5.4723   -4.0954   16.8640 C   0  0  0  0  0  0  0  0  0  0  0  0
  1  2  2  0
  2 13  1  0
  2  3  1  0
 13 14  2  0
 13 17  1  0
 14 15  1  0
 15 16  1  0
 16 17  2  0
 16 21  1  0
 17 18  1  0
 18 19  1  0
 19 20  1  0
 20 21  1  0
  3  4  1  0
  3 12  1  0
  4  5  1  0
  5  6  1  0
  6  7  2  0
  6 11  1  0
  7  8  1  0
  8  9  2  0
  9 10  1  0
 10 11  2  0
 11 12  1  0
M  END
> <minimizedAffinity>
-7.46445

> <CNNscore>
0.2166133672

> <CNNaffinity>
6.1181259155

> <CNN_VS>
1.3252679110

> <CNNaffinity_variance>
0.0063752569

$$$$



 21 24  0  0  0  0  0  0  0  0999 V2000
   -7.6225   -2.2954   13.7491 O   0  0  0  0  0  0  0  0  0  0  0  0
   -6.9340   -3.1490   13.1879 C   0  0  0  0  0  0  0  0  0  0  0  0
   -7.1519   -3.4807   11.8405 N   0  0  0  0  0  0  0  0  0  0  0  0
   -6.2930   -4.4021   11.0818 C   0  0  0  0  0  0  0  0  0  0  0  0
   -6.4771   -4.3737    9.5666 C   0  0  0  0  0  0  0  0  0  0  0  0
   -7.9374   -4.4120    9.2258 C   0  0  0  0  0  0  0  0  0  0  0  0
   -8.4265   -5.1708    8.1600 C   0  0  0  0  0  0  0  0  0  0  0  0
   -9.7857   -5.1463    7.8598 C   0  0  0  0  0  0  0  0  0  0  0  0
  -10.6547   -4.3524    8.6120 C   0  0  0  0  0  0  0  0  0  0  0  0
  -10.1673   -3.5899    9.6750 C   0  0  0  0  0  0  0  0  0  0  0  0
   -8.8076   -3.6262   10.0002 C   0  0  0  0  0  0  0  0  0  0  0  0
   -8.2346   -2.8010   11.1281 C   0  0  0  0  0  0  0  0  0  0  0  0
   -5.8199   -3.7884   13.9181 C   0  0  0  0  0  0  0  0  0  0  0  0
   -4.5777   -3.9452   13.4087 N   0  0  0  0  0  0  0  0  0  0  0  0
   -3.8060   -4.5265   14.3964 O   0  0  0  0  0  0  0  0  0  0  0  0
   -4.5873   -4.7628   15.4644 C   0  0  0  0  0  0  0  0  0  0  0  0
   -5.8701   -4.3461   15.2255 C   0  0  0  0  0  0  0  0  0  0  0  0
   -6.9591   -4.5173   16.2191 C   0  0  0  0  0  0  0  0  0  0  0  0
   -6.3827   -4.9047   17.6035 C   0  0  0  0  0  0  0  0  0  0  0  0
   -5.2216   -5.9226   17.5123 C   0  0  0  0  0  0  0  0  0  0  0  0
   -4.0395   -5.3839   16.6821 C   0  0  0  0  0  0  0  0  0  0  0  0
  1  2  2  0
  2 13  1  0
  2  3  1  0
 13 14  2  0
 13 17  1  0
 14 15  1  0
 15 16  1  0
 16 17  2  0
 16 21  1  0
 17 18  1  0
 18 19  1  0
 19 20  1  0
 20 21  1  0
  3  4  1  0
  3 12  1  0
  4  5  1  0
  5  6  1  0
  6  7  2  0
  6 11  1  0
  7  8  1  0
  8  9  2  0
  9 10  1  0
 10 11  2  0
 11 12  1  0
M  END
> <minimizedAffinity>
-5.66986

> <CNNscore>
0.2052956969

> <CNNaffinity>
6.2811865807

> <CNN_VS>
1.2895005941

> <CNNaffinity_variance>
0.4752007723

$$$$



 21 24  0  0  0  0  0  0  0  0999 V2000
   -8.9937   -3.2589   14.4890 O   0  0  0  0  0  0  0  0  0  0  0  0
   -8.9171   -3.9036   13.4421 C   0  0  0  0  0  0  0  0  0  0  0  0
   -7.8163   -4.7380   13.1870 N   0  0  0  0  0  0  0  0  0  0  0  0
   -7.7205   -5.6206   12.0147 C   0  0  0  0  0  0  0  0  0  0  0  0
   -6.6307   -6.6873   12.0834 C   0  0  0  0  0  0  0  0  0  0  0  0
   -5.3420   -6.0760   12.5476 C   0  0  0  0  0  0  0  0  0  0  0  0
   -4.1126   -6.4340   11.9897 C   0  0  0  0  0  0  0  0  0  0  0  0
   -2.9394   -5.8657   12.4785 C   0  0  0  0  0  0  0  0  0  0  0  0
   -2.9908   -4.9528   13.5346 C   0  0  0  0  0  0  0  0  0  0  0  0
   -4.2181   -4.5969   14.0965 C   0  0  0  0  0  0  0  0  0  0  0  0
   -5.4044   -5.1434   13.5969 C   0  0  0  0  0  0  0  0  0  0  0  0
   -6.7515   -4.8026   14.1889 C   0  0  0  0  0  0  0  0  0  0  0  0
  -10.0264   -3.8532   12.4673 C   0  0  0  0  0  0  0  0  0  0  0  0
  -11.3283   -3.7433   12.8135 N   0  0  0  0  0  0  0  0  0  0  0  0
  -12.0542   -3.6714   11.6401 O   0  0  0  0  0  0  0  0  0  0  0  0
  -11.2045   -3.7895   10.6051 C   0  0  0  0  0  0  0  0  0  0  0  0
   -9.9172   -3.9307   11.0514 C   0  0  0  0  0  0  0  0  0  0  0  0
   -8.7719   -4.1190   10.1264 C   0  0  0  0  0  0  0  0  0  0  0  0
   -9.1889   -3.8107    8.6671 C   0  0  0  0  0  0  0  0  0  0  0  0
  -10.5949   -4.3496    8.3126 C   0  0  0  0  0  0  0  0  0  0  0  0
  -11.6918   -3.7519    9.2160 C   0  0  0  0  0  0  0  0  0  0  0  0
  1  2  2  0
  2 13  1  0
  2  3  1  0
 13 14  2  0
 13 17  1  0
 14 15  1  0
 15 16  1  0
 16 17  2  0
 16 21  1  0
 17 18  1  0
 18 19  1  0
 19 20  1  0
 20 21  1  0
  3  4  1  0
  3 12  1  0
  4  5  1  0
  5  6  1  0
  6  7  2  0
  6 11  1  0
  7  8  1  0
  8  9  2  0
  9 10  1  0
 10 11  2  0
 11 12  1  0
M  END
> <minimizedAffinity>
-1.69619

> <CNNscore>
0.1957370639

> <CNNaffinity>
6.4041419029

> <CNN_VS>
1.2535278797

> <CNNaffinity_variance>
0.1920856237

$$$$



 21 24  0  0  0  0  0  0  0  0999 V2000
   -8.3167   -3.9998    7.8485 O   0  0  0  0  0  0  0  0  0  0  0  0
   -8.5902   -4.7039    8.8216 C   0  0  0  0  0  0  0  0  0  0  0  0
   -9.3168   -4.1856    9.9062 N   0  0  0  0  0  0  0  0  0  0  0  0
   -9.7753   -5.0011   11.0407 C   0  0  0  0  0  0  0  0  0  0  0  0
  -10.8261   -4.3491   11.9357 C   0  0  0  0  0  0  0  0  0  0  0  0
  -10.4201   -2.9429   12.2641 C   0  0  0  0  0  0  0  0  0  0  0  0
  -10.6005   -2.4017   13.5391 C   0  0  0  0  0  0  0  0  0  0  0  0
  -10.2411   -1.0797   13.7865 C   0  0  0  0  0  0  0  0  0  0  0  0
   -9.7173   -0.2923   12.7584 C   0  0  0  0  0  0  0  0  0  0  0  0
   -9.5403   -0.8300   11.4824 C   0  0  0  0  0  0  0  0  0  0  0  0
   -9.8753   -2.1639   11.2293 C   0  0  0  0  0  0  0  0  0  0  0  0
   -9.7201   -2.7795    9.8588 C   0  0  0  0  0  0  0  0  0  0  0  0
   -8.2083   -6.1313    8.8242 C   0  0  0  0  0  0  0  0  0  0  0  0
   -8.6808   -7.0385    7.9407 N   0  0  0  0  0  0  0  0  0  0  0  0
   -8.0587   -8.2396    8.2226 O   0  0  0  0  0  0  0  0  0  0  0  0
   -7.2641   -8.0674    9.2931 C   0  0  0  0  0  0  0  0  0  0  0  0
   -7.3271   -6.7732    9.7375 C   0  0  0  0  0  0  0  0  0  0  0  0
   -6.5791   -6.3059   10.9312 C   0  0  0  0  0  0  0  0  0  0  0  0
   -5.5241   -7.3545   11.3627 C   0  0  0  0  0  0  0  0  0  0  0  0
   -6.0421   -8.8088   11.2674 C   0  0  0  0  0  0  0  0  0  0  0  0
   -6.4679   -9.1820    9.8335 C   0  0  0  0  0  0  0  0  0  0  0  0
  1  2  2  0
  2 13  1  0
  2  3  1  0
 13 14  2  0
 13 17  1  0
 14 15  1  0
 15 16  1  0
 16 17  2  0
 16 21  1  0
 17 18  1  0
 18 19  1  0
 19 20  1  0
 20 21  1  0
  3  4  1  0
  3 12  1  0
  4  5  1  0
  5  6  1  0
  6  7  2  0
  6 11  1  0
  7  8  1  0
  8  9  2  0
  9 10  1  0
 10 11  2  0
 11 12  1  0
M  END
> <minimizedAffinity>
-3.14688

> <CNNscore>
0.1535926759

> <CNNaffinity>
5.8090438843

> <CNN_VS>
0.8922265768

> <CNNaffinity_variance>
0.0830174461

$$$$



 21 24  0  0  0  0  0  0  0  0999 V2000
   -4.0460   -5.4517   11.1976 O   0  0  0  0  0  0  0  0  0  0  0  0
   -5.1578   -4.9797   11.4397 C   0  0  0  0  0  0  0  0  0  0  0  0
   -5.4869   -4.5327   12.7299 N   0  0  0  0  0  0  0  0  0  0  0  0
   -6.7499   -3.8544   13.0569 C   0  0  0  0  0  0  0  0  0  0  0  0
   -6.7841   -3.1465   14.4090 C   0  0  0  0  0  0  0  0  0  0  0  0
   -6.2314   -4.0465   15.4741 C   0  0  0  0  0  0  0  0  0  0  0  0
   -6.8051   -4.1239   16.7453 C   0  0  0  0  0  0  0  0  0  0  0  0
   -6.2349   -4.9469   17.7126 C   0  0  0  0  0  0  0  0  0  0  0  0
   -5.0831   -5.6801   17.4175 C   0  0  0  0  0  0  0  0  0  0  0  0
   -4.5056   -5.6008   16.1491 C   0  0  0  0  0  0  0  0  0  0  0  0
   -5.0843   -4.7960   15.1627 C   0  0  0  0  0  0  0  0  0  0  0  0
   -4.4806   -4.6645   13.7844 C   0  0  0  0  0  0  0  0  0  0  0  0
   -6.1395   -4.8186   10.3471 C   0  0  0  0  0  0  0  0  0  0  0  0
   -6.4611   -3.6281    9.7937 N   0  0  0  0  0  0  0  0  0  0  0  0
   -7.3610   -3.8846    8.7771 O   0  0  0  0  0  0  0  0  0  0  0  0
   -7.6153   -5.2044    8.7557 C   0  0  0  0  0  0  0  0  0  0  0  0
   -6.9004   -5.8495    9.7299 C   0  0  0  0  0  0  0  0  0  0  0  0
   -7.0137   -7.3108    9.9624 C   0  0  0  0  0  0  0  0  0  0  0  0
   -7.7575   -7.9968    8.7898 C   0  0  0  0  0  0  0  0  0  0  0  0
   -8.9645   -7.1769    8.2764 C   0  0  0  0  0  0  0  0  0  0  0  0
   -8.5474   -5.7810    7.7723 C   0  0  0  0  0  0  0  0  0  0  0  0
  1  2  2  0
  2 13  1  0
  2  3  1  0
 13 14  2  0
 13 17  1  0
 14 15  1  0
 15 16  1  0
 16 17  2  0
 16 21  1  0
 17 18  1  0
 18 19  1  0
 19 20  1  0
 20 21  1  0
  3  4  1  0
  3 12  1  0
  4  5  1  0
  5  6  1  0
  6  7  2  0
  6 11  1  0
  7  8  1  0
  8  9  2  0
  9 10  1  0
 10 11  2  0
 11 12  1  0
M  END
> <minimizedAffinity>
-5.39109

> <CNNscore>
0.1522605121

> <CNNaffinity>
6.1200256348

> <CNN_VS>
0.9318382144

> <CNNaffinity_variance>
0.2891477048

$$$$
