5756
 OpenBabel09212612403D

 45 48  0  0  1  0  0  0  0  0999 V2000
   -4.7606    1.4776   -0.3487 O   0  0  0  0  0  0  0  0  0  0  0  0
   -4.9325   -1.4934    0.8754 O   0  0  0  0  0  0  0  0  0  0  0  0
    6.1105   -0.0366   -0.3395 O   0  0  0  0  0  0  0  0  0  0  0  0
   -2.3842    0.7946   -0.2197 C   0  0  1  0  0  0  0  0  0  0  0  0
   -1.7770   -0.5484    0.2414 C   0  0  2  0  0  0  0  0  0  0  0  0
   -0.3016   -0.6757   -0.1398 C   0  0  1  0  0  0  0  0  0  0  0  0
    0.4981    0.4635    0.5670 C   0  0  2  0  0  0  0  0  0  0  0  0
   -3.8363    0.5828    0.2460 C   0  0  2  0  0  0  0  0  0  0  0  0
   -1.6370    1.9245    0.5000 C   0  0  0  0  0  0  0  0  0  0  0  0
   -2.7724   -1.5913   -0.2683 C   0  0  0  0  0  0  0  0  0  0  0  0
   -4.1369   -0.8867   -0.1395 C   0  0  1  0  0  0  0  0  0  0  0  0
   -0.1173    1.8541    0.2566 C   0  0  0  0  0  0  0  0  0  0  0  0
    0.2965   -2.0252    0.2659 C   0  0  0  0  0  0  0  0  0  0  0  0
   -2.3380    1.0392   -1.7480 C   0  0  0  0  0  0  0  0  0  0  0  0
    1.9943    0.3414    0.2864 C   0  0  0  0  0  0  0  0  0  0  0  0
    1.7225   -2.1447   -0.2665 C   0  0  0  0  0  0  0  0  0  0  0  0
    2.5620   -0.9038   -0.0601 C   0  0  0  0  0  0  0  0  0  0  0  0
    2.8568    1.4358    0.4564 C   0  0  0  0  0  0  0  0  0  0  0  0
    3.9489   -1.0085   -0.2795 C   0  0  0  0  0  0  0  0  0  0  0  0
    4.2338    1.3218    0.2463 C   0  0  0  0  0  0  0  0  0  0  0  0
    4.7693    0.0996   -0.1252 C   0  0  0  0  0  0  0  0  0  0  0  0
   -4.5445    2.3865   -0.0877 H   0  0  0  0  0  0  0  0  0  0  0  0
   -5.7842   -1.0332    0.9370 H   0  0  0  0  0  0  0  0  0  0  0  0
    6.4628   -0.8678   -0.5906 H   0  0  0  0  0  0  0  0  0  0  0  0
   -1.6817   -0.6736    1.2998 H   0  0  0  0  0  0  0  0  0  0  0  0
   -0.2335   -0.6003   -1.2049 H   0  0  0  0  0  0  0  0  0  0  0  0
    0.4081    0.3542    1.6276 H   0  0  0  0  0  0  0  0  0  0  0  0
   -3.9408    0.7768    1.2931 H   0  0  0  0  0  0  0  0  0  0  0  0
   -1.8230    1.8477    1.5509 H   0  0  0  0  0  0  0  0  0  0  0  0
   -1.9922    2.8565    0.1125 H   0  0  0  0  0  0  0  0  0  0  0  0
   -2.7410   -2.4752    0.3340 H   0  0  0  0  0  0  0  0  0  0  0  0
   -2.5632   -1.9108   -1.2678 H   0  0  0  0  0  0  0  0  0  0  0  0
   -4.6822   -0.9557   -1.0575 H   0  0  0  0  0  0  0  0  0  0  0  0
    0.0718    2.0860   -0.7707 H   0  0  0  0  0  0  0  0  0  0  0  0
    0.3399    2.5554    0.9230 H   0  0  0  0  0  0  0  0  0  0  0  0
   -0.3009   -2.8143   -0.1407 H   0  0  0  0  0  0  0  0  0  0  0  0
    0.3128   -2.0959    1.3334 H   0  0  0  0  0  0  0  0  0  0  0  0
   -2.8590    0.2516   -2.2511 H   0  0  0  0  0  0  0  0  0  0  0  0
   -1.3195    1.0592   -2.0753 H   0  0  0  0  0  0  0  0  0  0  0  0
   -2.8035    1.9759   -1.9735 H   0  0  0  0  0  0  0  0  0  0  0  0
    1.6740   -2.3474   -1.3160 H   0  0  0  0  0  0  0  0  0  0  0  0
    2.1935   -2.9322    0.2838 H   0  0  0  0  0  0  0  0  0  0  0  0
    2.4647    2.3462    0.7434 H   0  0  0  0  0  0  0  0  0  0  0  0
    4.3575   -1.9147   -0.5567 H   0  0  0  0  0  0  0  0  0  0  0  0
    4.8474    2.1427    0.3671 H   0  0  0  0  0  0  0  0  0  0  0  0
  1  8  1  0  0  0  0
  1 22  1  0  0  0  0
  2 11  1  0  0  0  0
  2 23  1  0  0  0  0
  3 21  1  0  0  0  0
  3 24  1  0  0  0  0
  4  5  1  0  0  0  0
  4  8  1  0  0  0  0
  4  9  1  0  0  0  0
  4 14  1  6  0  0  0
  5  6  1  0  0  0  0
  5 10  1  0  0  0  0
  5 25  1  1  0  0  0
  6  7  1  0  0  0  0
  6 13  1  0  0  0  0
  6 26  1  6  0  0  0
  7 12  1  0  0  0  0
  7 15  1  0  0  0  0
  7 27  1  1  0  0  0
  8 11  1  0  0  0  0
  8 28  1  1  0  0  0
  9 12  1  0  0  0  0
  9 29  1  0  0  0  0
  9 30  1  0  0  0  0
 10 11  1  0  0  0  0
 10 31  1  0  0  0  0
 10 32  1  0  0  0  0
 11 33  1  6  0  0  0
 12 34  1  0  0  0  0
 12 35  1  0  0  0  0
 13 16  1  0  0  0  0
 13 36  1  0  0  0  0
 13 37  1  0  0  0  0
 14 38  1  0  0  0  0
 14 39  1  0  0  0  0
 14 40  1  0  0  0  0
 15 17  2  0  0  0  0
 15 18  1  0  0  0  0
 16 17  1  0  0  0  0
 16 41  1  0  0  0  0
 16 42  1  0  0  0  0
 17 19  1  0  0  0  0
 18 20  2  0  0  0  0
 18 43  1  0  0  0  0
 19 21  2  0  0  0  0
 19 44  1  0  0  0  0
 20 21  1  0  0  0  0
 20 45  1  0  0  0  0
M  END
>  <PUBCHEM_COMPOUND_CID>
5756

>  <PUBCHEM_CONFORMER_RMSD>
0.6

>  <PUBCHEM_CONFORMER_DIVERSEORDER>
1

>  <PUBCHEM_MMFF94_PARTIAL_CHARGES>
19
1 -0.68
11 0.28
15 -0.14
16 0.14
17 -0.14
18 -0.15
19 -0.15
2 -0.68
20 -0.15
21 0.08
3 -0.53
40 0.4
41 0.4
42 0.15
43 0.15
44 0.15
45 0.45
7 0.14
8 0.28

>  <PUBCHEM_EFFECTIVE_ROTOR_COUNT>
1.4

>  <PUBCHEM_PHARMACOPHORE_FEATURES>
9
1 1 acceptor
1 1 donor
1 2 acceptor
1 2 donor
1 3 donor
5 4 5 8 10 11 rings
6 15 17 18 19 20 21 rings
6 4 5 6 7 9 12 rings
6 6 7 13 15 16 17 rings

>  <PUBCHEM_HEAVY_ATOM_COUNT>
21

>  <PUBCHEM_ATOM_DEF_STEREO_COUNT>
6

>  <PUBCHEM_ATOM_UDEF_STEREO_COUNT>
0

>  <PUBCHEM_BOND_DEF_STEREO_COUNT>
0

>  <PUBCHEM_BOND_UDEF_STEREO_COUNT>
0

>  <PUBCHEM_ISOTOPIC_ATOM_COUNT>
0

>  <PUBCHEM_COMPONENT_COUNT>
1

>  <PUBCHEM_CACTVS_TAUTO_COUNT>
9

>  <PUBCHEM_CONFORMER_ID>
0000167C00000001

>  <PUBCHEM_MMFF94_ENERGY>
74.2287

>  <PUBCHEM_FEATURE_SELFOVERLAP>
45.769

>  <PUBCHEM_SHAPE_FINGERPRINT>
10366900 7 14634867557166041548
10498660 4 18408881815471709348
10616163 171 18342176661191225455
10967382 1 18412824672906268922
11578080 2 17170384113825671127
12011746 2 18411129260758035031
12236239 1 17821728334590177112
12403259 226 18337386038032801164
12403259 415 18341045307013644088
12403814 3 17821444647541895957
12788726 201 17416121677548336001
128620 24 18259987071787480132
13140716 1 17906450279017531290
13214271 11 18412543211104506687
13224815 77 18410290298356338418
13288520 33 18412266155443434557
13402501 40 18410857689327146770
13583140 156 16879042266117902944
13862211 1 18412539946412890586
14787075 74 18336827605741377619
14790565 3 18412833503101073441
15196674 1 18411699885137473578
15536298 74 18272369771897742464
15788980 27 16487253266417825780
16945 1 18195518199487880947
16988056 13 14073547831380438037
17349148 13 18333166172371129568
17492 89 18337953364020528722
18186145 218 18410566284718305044
19591789 44 18268708492387311331
200 152 17989485220984917552
20645477 70 18130222662127533518
21267235 1 18340214071469070595
21279426 13 18340208462737583054
21709351 56 18335414686113003020
221357 26 18201720635143912556
221490 88 18340211774009947650
23402539 116 18341607131584984838
23402655 69 18271804588350415164
23557571 272 18411426123895724422
23559900 14 18343015602038853792
25 1 18411413986756034566
2748010 2 18268418204137423560
2871803 45 18411132528500133782
3004659 81 18334862676570321518
3323516 105 18413387656971489360
335352 9 18340768156636172148
34934 24 18338794516574957659
350125 39 18411703192821817992
3545911 37 18410856542512823877
4214541 1 18411136935110160201
474 4 18040442092027937668
474229 33 18410856581468437226
4990 188 18060707186697419350
5104073 3 18410573955113184723
542803 24 17675926499608374260
58051976 378 18342738477478801156
59755656 215 18410858746079369566
77779 3 18411700984580471082
9709674 26 18412832369340476974

>  <PUBCHEM_SHAPE_MULTIPOLES>
414.56
10.29
2.14
0.86
4.28
0.22
0.22
-0.13
0.43
-0.47
-0.11
-0.48
-0.14
0.64

>  <PUBCHEM_SHAPE_SELFOVERLAP>
903.293

>  <PUBCHEM_SHAPE_VOLUME>
225.3

>  <PUBCHEM_COORDINATE_TYPE>
2
5
10

>  <Energy>
81.1927

$$$$
