104741
 OpenBabel09212612403D

 88 91  0  0  1  0  0  0  0  0999 V2000
   -7.4289   -0.0344   -1.3387 S   0  0  2  0  0  0  0  0  0  0  0  0
  -12.7063   -0.9442   -0.6303 F   0  0  0  0  0  0  0  0  0  0  0  0
  -12.6641    1.2334   -0.7368 F   0  0  0  0  0  0  0  0  0  0  0  0
  -13.4161    1.3794    1.9771 F   0  0  0  0  0  0  0  0  0  0  0  0
  -13.4576   -0.7941    2.0868 F   0  0  0  0  0  0  0  0  0  0  0  0
  -14.8280    0.2548    0.7515 F   0  0  0  0  0  0  0  0  0  0  0  0
    8.6843    4.9680    0.7224 O   0  0  0  0  0  0  0  0  0  0  0  0
    7.2396   -5.8885    0.1429 O   0  0  0  0  0  0  0  0  0  0  0  0
   -7.5625   -1.4101   -1.9224 O   0  0  0  0  0  0  0  0  0  0  0  0
    6.6756    2.0292   -0.0595 C   0  0  2  0  0  0  0  0  0  0  0  0
    8.0118    2.6112    0.4429 C   0  0  2  0  0  0  0  0  0  0  0  0
    6.7782    0.5374   -0.3936 C   0  0  1  0  0  0  0  0  0  0  0  0
    7.1506   -0.2381    0.9056 C   0  0  2  0  0  0  0  0  0  0  0  0
    8.3873    1.8829    1.7399 C   0  0  0  0  0  0  0  0  0  0  0  0
    7.5866    4.0822    0.6235 C   0  0  2  0  0  0  0  0  0  0  0  0
    6.2419    3.0115   -1.1431 C   0  0  0  0  0  0  0  0  0  0  0  0
    5.5167   -0.0498   -1.0649 C   0  0  1  0  0  0  0  0  0  0  0  0
    8.4376    0.3537    1.5480 C   0  0  0  0  0  0  0  0  0  0  0  0
    6.7233    4.3769   -0.6195 C   0  0  0  0  0  0  0  0  0  0  0  0
    9.1871    2.5108   -0.5619 C   0  0  0  0  0  0  0  0  0  0  0  0
    7.1964   -1.7447    0.6646 C   0  0  0  0  0  0  0  0  0  0  0  0
    5.8396   -1.4921   -1.4963 C   0  0  0  0  0  0  0  0  0  0  0  0
    4.2343    0.0144   -0.2012 C   0  0  0  0  0  0  0  0  0  0  0  0
    6.5402   -2.3201   -0.4419 C   0  0  0  0  0  0  0  0  0  0  0  0
    2.9596   -0.0148   -1.0590 C   0  0  0  0  0  0  0  0  0  0  0  0
    7.8160   -2.6041    1.5921 C   0  0  0  0  0  0  0  0  0  0  0  0
    6.5665   -3.7176   -0.6275 C   0  0  0  0  0  0  0  0  0  0  0  0
    1.6962    0.0728   -0.1933 C   0  0  0  0  0  0  0  0  0  0  0  0
    7.8277   -3.9876    1.4052 C   0  0  0  0  0  0  0  0  0  0  0  0
    7.2071   -4.5338    0.2955 C   0  0  0  0  0  0  0  0  0  0  0  0
    0.4234   -0.0186   -1.0444 C   0  0  0  0  0  0  0  0  0  0  0  0
   -0.8560    0.0141   -0.1957 C   0  0  0  0  0  0  0  0  0  0  0  0
   -2.1157   -0.1005   -1.0686 C   0  0  0  0  0  0  0  0  0  0  0  0
   -3.4055   -0.0791   -0.2363 C   0  0  0  0  0  0  0  0  0  0  0  0
   -4.6631   -0.1214   -1.1182 C   0  0  0  0  0  0  0  0  0  0  0  0
   -5.9380   -0.0298   -0.2795 C   0  0  0  0  0  0  0  0  0  0  0  0
   -8.6283    0.0882    0.0367 C   0  0  0  0  0  0  0  0  0  0  0  0
  -10.0614    0.1054   -0.4905 C   0  0  0  0  0  0  0  0  0  0  0  0
  -11.0857    0.1815    0.6506 C   0  0  0  0  0  0  0  0  0  0  0  0
  -12.5186    0.1798    0.1160 C   0  0  0  0  0  0  0  0  0  0  0  0
  -13.5632    0.2543    1.2330 C   0  0  0  0  0  0  0  0  0  0  0  0
    9.2028    4.7532    1.5134 H   0  0  0  0  0  0  0  0  0  0  0  0
    6.8279   -6.2864   -0.5988 H   0  0  0  0  0  0  0  0  0  0  0  0
    5.8923    1.9714    0.6671 H   0  0  0  0  0  0  0  0  0  0  0  0
    7.5465    0.4230   -1.1295 H   0  0  0  0  0  0  0  0  0  0  0  0
    6.3757   -0.1017    1.6308 H   0  0  0  0  0  0  0  0  0  0  0  0
    7.6591    2.1136    2.4892 H   0  0  0  0  0  0  0  0  0  0  0  0
    9.3619    2.2120    2.0343 H   0  0  0  0  0  0  0  0  0  0  0  0
    7.0570    4.2290    1.5416 H   0  0  0  0  0  0  0  0  0  0  0  0
    5.1785    3.0026   -1.2615 H   0  0  0  0  0  0  0  0  0  0  0  0
    6.6476    2.7717   -2.1037 H   0  0  0  0  0  0  0  0  0  0  0  0
    5.2822    0.5619   -1.9109 H   0  0  0  0  0  0  0  0  0  0  0  0
    9.2689    0.1197    0.9163 H   0  0  0  0  0  0  0  0  0  0  0  0
    8.5297   -0.0809    2.5214 H   0  0  0  0  0  0  0  0  0  0  0  0
    7.3058    4.8757   -1.3657 H   0  0  0  0  0  0  0  0  0  0  0  0
    5.8984    5.0145   -0.3786 H   0  0  0  0  0  0  0  0  0  0  0  0
    9.4712    1.4857   -0.6771 H   0  0  0  0  0  0  0  0  0  0  0  0
   10.0200    3.0725   -0.1937 H   0  0  0  0  0  0  0  0  0  0  0  0
    8.8816    2.9049   -1.5086 H   0  0  0  0  0  0  0  0  0  0  0  0
    6.4690   -1.4495   -2.3606 H   0  0  0  0  0  0  0  0  0  0  0  0
    4.9014   -1.9706   -1.6853 H   0  0  0  0  0  0  0  0  0  0  0  0
    4.2466    0.9201    0.3684 H   0  0  0  0  0  0  0  0  0  0  0  0
    4.2226   -0.8444    0.4370 H   0  0  0  0  0  0  0  0  0  0  0  0
    2.9365   -0.9281   -1.6162 H   0  0  0  0  0  0  0  0  0  0  0  0
    2.9767    0.8311   -1.7140 H   0  0  0  0  0  0  0  0  0  0  0  0
    8.2708   -2.2031    2.4272 H   0  0  0  0  0  0  0  0  0  0  0  0
    6.1080   -4.1354   -1.4523 H   0  0  0  0  0  0  0  0  0  0  0  0
    1.6978    1.0059    0.3304 H   0  0  0  0  0  0  0  0  0  0  0  0
    1.7014   -0.7490    0.4919 H   0  0  0  0  0  0  0  0  0  0  0  0
    8.2966   -4.5998    2.0911 H   0  0  0  0  0  0  0  0  0  0  0  0
    0.4452   -0.9348   -1.5968 H   0  0  0  0  0  0  0  0  0  0  0  0
    0.4046    0.8320   -1.6932 H   0  0  0  0  0  0  0  0  0  0  0  0
   -0.8907    0.9368    0.3450 H   0  0  0  0  0  0  0  0  0  0  0  0
   -0.8353   -0.8201    0.4740 H   0  0  0  0  0  0  0  0  0  0  0  0
   -2.0737   -1.0199   -1.6144 H   0  0  0  0  0  0  0  0  0  0  0  0
   -2.1364    0.7437   -1.7258 H   0  0  0  0  0  0  0  0  0  0  0  0
   -3.4240    0.8168    0.3484 H   0  0  0  0  0  0  0  0  0  0  0  0
   -3.4103   -0.9492    0.3865 H   0  0  0  0  0  0  0  0  0  0  0  0
   -4.6727   -1.0403   -1.6665 H   0  0  0  0  0  0  0  0  0  0  0  0
   -4.6364    0.7174   -1.7819 H   0  0  0  0  0  0  0  0  0  0  0  0
   -5.9794   -0.8674    0.3850 H   0  0  0  0  0  0  0  0  0  0  0  0
   -5.9162    0.8878    0.2704 H   0  0  0  0  0  0  0  0  0  0  0  0
   -8.4448    0.9902    0.5823 H   0  0  0  0  0  0  0  0  0  0  0  0
   -8.5079   -0.7639    0.6725 H   0  0  0  0  0  0  0  0  0  0  0  0
  -10.2347   -0.7883   -1.0529 H   0  0  0  0  0  0  0  0  0  0  0  0
  -10.1805    0.9739   -1.1041 H   0  0  0  0  0  0  0  0  0  0  0  0
  -10.9223    1.0817    1.2054 H   0  0  0  0  0  0  0  0  0  0  0  0
  -10.9585   -0.6780    1.2749 H   0  0  0  0  0  0  0  0  0  0  0  0
  1  9  2  1  0  0  0
  1 36  1  0  0  0  0
  1 37  1  0  0  0  0
  2 40  1  0  0  0  0
  3 40  1  0  0  0  0
  4 41  1  0  0  0  0
  5 41  1  0  0  0  0
  6 41  1  0  0  0  0
  7 15  1  0  0  0  0
  7 42  1  0  0  0  0
  8 30  1  0  0  0  0
  8 43  1  0  0  0  0
 10 11  1  0  0  0  0
 10 12  1  0  0  0  0
 10 16  1  0  0  0  0
 10 44  1  1  0  0  0
 11 14  1  0  0  0  0
 11 15  1  0  0  0  0
 11 20  1  6  0  0  0
 12 13  1  0  0  0  0
 12 17  1  0  0  0  0
 12 45  1  6  0  0  0
 13 18  1  0  0  0  0
 13 21  1  0  0  0  0
 13 46  1  1  0  0  0
 14 18  1  0  0  0  0
 14 47  1  0  0  0  0
 14 48  1  0  0  0  0
 15 19  1  0  0  0  0
 15 49  1  1  0  0  0
 16 19  1  0  0  0  0
 16 50  1  0  0  0  0
 16 51  1  0  0  0  0
 17 22  1  0  0  0  0
 17 23  1  0  0  0  0
 17 52  1  6  0  0  0
 18 53  1  0  0  0  0
 18 54  1  0  0  0  0
 19 55  1  0  0  0  0
 19 56  1  0  0  0  0
 20 57  1  0  0  0  0
 20 58  1  0  0  0  0
 20 59  1  0  0  0  0
 21 24  2  0  0  0  0
 21 26  1  0  0  0  0
 22 24  1  0  0  0  0
 22 60  1  0  0  0  0
 22 61  1  0  0  0  0
 23 25  1  0  0  0  0
 23 62  1  0  0  0  0
 23 63  1  0  0  0  0
 24 27  1  0  0  0  0
 25 28  1  0  0  0  0
 25 64  1  0  0  0  0
 25 65  1  0  0  0  0
 26 29  2  0  0  0  0
 26 66  1  0  0  0  0
 27 30  2  0  0  0  0
 27 67  1  0  0  0  0
 28 31  1  0  0  0  0
 28 68  1  0  0  0  0
 28 69  1  0  0  0  0
 29 30  1  0  0  0  0
 29 70  1  0  0  0  0
 31 32  1  0  0  0  0
 31 71  1  0  0  0  0
 31 72  1  0  0  0  0
 32 33  1  0  0  0  0
 32 73  1  0  0  0  0
 32 74  1  0  0  0  0
 33 34  1  0  0  0  0
 33 75  1  0  0  0  0
 33 76  1  0  0  0  0
 34 35  1  0  0  0  0
 34 77  1  0  0  0  0
 34 78  1  0  0  0  0
 35 36  1  0  0  0  0
 35 79  1  0  0  0  0
 35 80  1  0  0  0  0
 36 81  1  0  0  0  0
 36 82  1  0  0  0  0
 37 38  1  0  0  0  0
 37 83  1  0  0  0  0
 37 84  1  0  0  0  0
 38 39  1  0  0  0  0
 38 85  1  0  0  0  0
 38 86  1  0  0  0  0
 39 40  1  0  0  0  0
 39 87  1  0  0  0  0
 39 88  1  0  0  0  0
 40 41  1  0  0  0  0
M  END
>  <PUBCHEM_COMPOUND_CID>
104741

>  <PUBCHEM_CONFORMER_RMSD>
1.6

>  <PUBCHEM_CONFORMER_DIVERSEORDER>
1
2
93
128
117
84
9
41
29
88
7
163
79
48
173
81
59
45
156
132
65
73
140
172
124
165
61
72
20
4
135
57
168
28
112
138
96
46
67
25
157
43
133
64
174
3
18
100
129
97
50
6
159
77
34
106
32
55
144
12
167
87
51
69
143
99
21
145
125
95
118
123
120
146
134
58
5
170
164
136
98
153
121
11
39
63
92
52
169
110
113
44
62
86
155
105
42
75
27
114
71
147
139
171
31
158
161
104
24
35
33
36
131
151
30
78
137
53
16
150
54
152
130
40
115
126
107
148
127
10
70
149
103
13
8
82
76
94
90
116
162
111
166
85
122
154
56
108
47
26
37
17
80
22
83
142
49
102
38
141
15
68
119
74
101
14
175
160
60
23
66
109
19
89
91

>  <PUBCHEM_MMFF94_PARTIAL_CHARGES>
27
1 0.11
13 0.14
15 0.28
2 -0.34
21 -0.14
22 0.14
24 -0.14
26 -0.15
27 -0.15
29 -0.15
3 -0.34
30 0.08
36 0.19
37 0.19
4 -0.34
40 0.68
41 1.02
5 -0.34
6 -0.34
62 0.4
65 0.15
66 0.15
69 0.15
7 -0.68
74 0.45
8 -0.53
9 -0.5

>  <PUBCHEM_EFFECTIVE_ROTOR_COUNT>
16.4

>  <PUBCHEM_PHARMACOPHORE_FEATURES>
8
1 7 acceptor
1 7 donor
1 8 donor
1 9 acceptor
5 10 11 15 16 19 rings
6 10 11 12 13 14 18 rings
6 12 13 17 21 22 24 rings
6 21 24 26 27 29 30 rings

>  <PUBCHEM_HEAVY_ATOM_COUNT>
41

>  <PUBCHEM_ATOM_DEF_STEREO_COUNT>
6

>  <PUBCHEM_ATOM_UDEF_STEREO_COUNT>
1

>  <PUBCHEM_BOND_DEF_STEREO_COUNT>
0

>  <PUBCHEM_BOND_UDEF_STEREO_COUNT>
0

>  <PUBCHEM_ISOTOPIC_ATOM_COUNT>
0

>  <PUBCHEM_COMPONENT_COUNT>
1

>  <PUBCHEM_CACTVS_TAUTO_COUNT>
9

>  <PUBCHEM_CONFORMER_ID>
0001992500000001

>  <PUBCHEM_MMFF94_ENERGY>
83.4397

>  <PUBCHEM_FEATURE_SELFOVERLAP>
40.694

>  <PUBCHEM_SHAPE_FINGERPRINT>
10533779 47 18040998432221733021
11966995 178 17458339724061081872
12089408 11 18202559593208431367
15061470 23 18131635574748594169
15065858 18 18186236222376417141
15554971 5 17846212241852450781
15779827 34 17676204671824248909
16728433 110 18408884041061340973
20587220 46 13695854919606553024
21102433 48 12685084909351561705
21362267 20 18408886270604165259
21362267 313 18272371919576634359
22164985 6 18334571357111824783
232437 2 11818989691709651453
9937071 3 18040719160753532403

>  <PUBCHEM_SHAPE_MULTIPOLES>
793.63
64.54
5.3
1.54
322
2.22
0.33
-9.3
25.29
-30.13
0.88
1.01
0.13
-1.36

>  <PUBCHEM_SHAPE_SELFOVERLAP>
1627.749

>  <PUBCHEM_SHAPE_VOLUME>
461

>  <PUBCHEM_COORDINATE_TYPE>
2
5
10

>  <Energy>
127.785

$$$$
