14851
 OpenBabel09212612393D

 16 16  0  0  0  0  0  0  0  0999 V2000
    2.0010   -1.9366    0.0063 Cl  0  0  0  0  0  0  0  0  0  0  0  0
    2.4187    1.0334    0.0035 O   0  0  0  0  0  0  0  0  0  0  0  0
   -1.5808   -0.1501   -0.0211 C   0  0  0  0  0  0  0  0  0  0  0  0
   -0.5598   -1.1101   -0.0045 C   0  0  0  0  0  0  0  0  0  0  0  0
   -1.2403    1.2083   -0.0029 C   0  0  0  0  0  0  0  0  0  0  0  0
    0.7806   -0.7161    0.0007 C   0  0  0  0  0  0  0  0  0  0  0  0
    1.1076    0.6425    0.0009 C   0  0  0  0  0  0  0  0  0  0  0  0
    0.0991    1.6057    0.0028 C   0  0  0  0  0  0  0  0  0  0  0  0
   -3.0200   -0.5735   -0.0008 C   0  0  0  0  0  0  0  0  0  0  0  0
    3.0995    0.3897    0.0023 H   0  0  0  0  0  0  0  0  0  0  0  0
   -0.7995   -2.1138    0.0039 H   0  0  0  0  0  0  0  0  0  0  0  0
   -1.9854    1.9222    0.0064 H   0  0  0  0  0  0  0  0  0  0  0  0
    0.3414    2.6088    0.0083 H   0  0  0  0  0  0  0  0  0  0  0  0
   -3.0778   -1.6418   -0.0192 H   0  0  0  0  0  0  0  0  0  0  0  0
   -3.5213   -0.1744   -0.8578 H   0  0  0  0  0  0  0  0  0  0  0  0
   -3.4874   -0.2063    0.8889 H   0  0  0  0  0  0  0  0  0  0  0  0
  1  6  1  0  0  0  0
  2  7  1  0  0  0  0
  2 10  1  0  0  0  0
  3  4  2  0  0  0  0
  3  5  1  0  0  0  0
  3  9  1  0  0  0  0
  4  6  1  0  0  0  0
  4 11  1  0  0  0  0
  5  8  2  0  0  0  0
  5 12  1  0  0  0  0
  6  7  2  0  0  0  0
  7  8  1  0  0  0  0
  8 13  1  0  0  0  0
  9 14  1  0  0  0  0
  9 15  1  0  0  0  0
  9 16  1  0  0  0  0
M  END
>  <PUBCHEM_COMPOUND_CID>
14851

>  <PUBCHEM_CONFORMER_RMSD>
0.4

>  <PUBCHEM_CONFORMER_DIVERSEORDER>
1

>  <PUBCHEM_MMFF94_PARTIAL_CHARGES>
13
1 -0.18
10 0.15
11 0.15
12 0.15
16 0.45
2 -0.53
3 -0.14
4 -0.15
5 -0.15
6 0.18
7 0.08
8 -0.15
9 0.14

>  <PUBCHEM_EFFECTIVE_ROTOR_COUNT>
0

>  <PUBCHEM_PHARMACOPHORE_FEATURES>
2
1 2 donor
6 3 4 5 6 7 8 rings

>  <PUBCHEM_HEAVY_ATOM_COUNT>
9

>  <PUBCHEM_ATOM_DEF_STEREO_COUNT>
0

>  <PUBCHEM_ATOM_UDEF_STEREO_COUNT>
0

>  <PUBCHEM_BOND_DEF_STEREO_COUNT>
0

>  <PUBCHEM_BOND_UDEF_STEREO_COUNT>
0

>  <PUBCHEM_ISOTOPIC_ATOM_COUNT>
0

>  <PUBCHEM_COMPONENT_COUNT>
1

>  <PUBCHEM_CACTVS_TAUTO_COUNT>
3

>  <PUBCHEM_CONFORMER_ID>
00003A0300000001

>  <PUBCHEM_MMFF94_ENERGY>
19.4765

>  <PUBCHEM_FEATURE_SELFOVERLAP>
10.148

>  <PUBCHEM_SHAPE_FINGERPRINT>
12423570 1 11516029024324066867
14128692 85 18267592307923202742
161256 15 18411422778253246838
16945 1 18338517559487208421
18185500 45 18341327915502706311
193761 8 18266741268511423652
21040471 1 17618222149102293733
23235685 24 18264765635105316781
23402655 69 18340470198614404773
23552423 10 18261398788872569542
241688 4 18192432969860497600
2748010 2 18337950078311654493
29004967 10 18262242221797060137
5084963 1 18200870660836504939

>  <PUBCHEM_SHAPE_MULTIPOLES>
181.22
3.31
1.89
0.61
0.78
0.04
0
-1
0
-0.76
0
0.01
-0.02
0

>  <PUBCHEM_SHAPE_SELFOVERLAP>
367.041

>  <PUBCHEM_SHAPE_VOLUME>
107.3

>  <PUBCHEM_COORDINATE_TYPE>
2
5
10

>  <Energy>
25.6561

$$$$
