6997
 OpenBabel09212612393D

 19 19  0  0  0  0  0  0  0  0999 V2000
    0.6665   -2.0867    0.1122 O   0  0  0  0  0  0  0  0  0  0  0  0
    0.4810    0.2841    0.2779 C   0  0  0  0  0  0  0  0  0  0  0  0
    1.9582    0.4258    0.5438 C   0  0  0  0  0  0  0  0  0  0  0  0
   -0.1122   -0.9656    0.0664 C   0  0  0  0  0  0  0  0  0  0  0  0
   -0.3243    1.4309    0.2130 C   0  0  0  0  0  0  0  0  0  0  0  0
    2.7553    0.5820   -0.7419 C   0  0  0  0  0  0  0  0  0  0  0  0
   -1.4789   -1.0773   -0.1873 C   0  0  0  0  0  0  0  0  0  0  0  0
   -1.6915    1.3242   -0.0407 C   0  0  0  0  0  0  0  0  0  0  0  0
   -2.2682    0.0710   -0.2391 C   0  0  0  0  0  0  0  0  0  0  0  0
    1.5849   -2.0125    0.2826 H   0  0  0  0  0  0  0  0  0  0  0  0
    2.3018   -0.4465    1.0595 H   0  0  0  0  0  0  0  0  0  0  0  0
    2.1053    1.3065    1.1333 H   0  0  0  0  0  0  0  0  0  0  0  0
    0.0987    2.3616    0.3542 H   0  0  0  0  0  0  0  0  0  0  0  0
    2.6246   -0.2882   -1.3505 H   0  0  0  0  0  0  0  0  0  0  0  0
    3.7924    0.7001   -0.5064 H   0  0  0  0  0  0  0  0  0  0  0  0
    2.4097    1.4441   -1.2732 H   0  0  0  0  0  0  0  0  0  0  0  0
   -1.9042   -2.0057   -0.3360 H   0  0  0  0  0  0  0  0  0  0  0  0
   -2.2764    2.1735   -0.0814 H   0  0  0  0  0  0  0  0  0  0  0  0
   -3.2804   -0.0072   -0.4247 H   0  0  0  0  0  0  0  0  0  0  0  0
  1  4  1  0  0  0  0
  1 10  1  0  0  0  0
  2  3  1  0  0  0  0
  2  4  1  0  0  0  0
  2  5  2  0  0  0  0
  3  6  1  0  0  0  0
  3 11  1  0  0  0  0
  3 12  1  0  0  0  0
  4  7  2  0  0  0  0
  5  8  1  0  0  0  0
  5 13  1  0  0  0  0
  6 14  1  0  0  0  0
  6 15  1  0  0  0  0
  6 16  1  0  0  0  0
  7  9  1  0  0  0  0
  7 17  1  0  0  0  0
  8  9  2  0  0  0  0
  8 18  1  0  0  0  0
  9 19  1  0  0  0  0
M  END
>  <PUBCHEM_COMPOUND_CID>
6997

>  <PUBCHEM_CONFORMER_RMSD>
0.4

>  <PUBCHEM_CONFORMER_DIVERSEORDER>
2
1
4
3

>  <PUBCHEM_MMFF94_PARTIAL_CHARGES>
13
1 -0.53
12 0.15
16 0.15
17 0.15
18 0.15
19 0.45
2 -0.14
3 0.14
4 0.08
5 -0.15
7 -0.15
8 -0.15
9 -0.15

>  <PUBCHEM_EFFECTIVE_ROTOR_COUNT>
1

>  <PUBCHEM_PHARMACOPHORE_FEATURES>
3
1 1 donor
1 6 hydrophobe
6 2 4 5 7 8 9 rings

>  <PUBCHEM_HEAVY_ATOM_COUNT>
9

>  <PUBCHEM_ATOM_DEF_STEREO_COUNT>
0

>  <PUBCHEM_ATOM_UDEF_STEREO_COUNT>
0

>  <PUBCHEM_BOND_DEF_STEREO_COUNT>
0

>  <PUBCHEM_BOND_UDEF_STEREO_COUNT>
0

>  <PUBCHEM_ISOTOPIC_ATOM_COUNT>
0

>  <PUBCHEM_COMPONENT_COUNT>
1

>  <PUBCHEM_CACTVS_TAUTO_COUNT>
3

>  <PUBCHEM_CONFORMER_ID>
00001B5500000002

>  <PUBCHEM_MMFF94_ENERGY>
18.3315

>  <PUBCHEM_FEATURE_SELFOVERLAP>
15.223

>  <PUBCHEM_SHAPE_FINGERPRINT>
12716758 59 18340491166021991104
12897270 3 18411134740387348244
16714656 1 18338518645987307804
16945 1 18412256251059075897
20645464 45 17916572280353036592
21040471 1 18339634551521096481
23235685 24 18408319986525753797
23552423 10 18263361382641979650
241688 4 15891657343746565523
2748010 2 17906441483246242565
5084963 1 18130791212696982088

>  <PUBCHEM_SHAPE_MULTIPOLES>
179.35
3.14
1.71
0.73
1.24
0.49
0.03
-0.64
0.6
-0.28
-0.07
0.22
-0.06
-0.1

>  <PUBCHEM_SHAPE_SELFOVERLAP>
367.327

>  <PUBCHEM_SHAPE_VOLUME>
104.3

>  <PUBCHEM_COORDINATE_TYPE>
2
5
10

>  <Energy>
9.16735

$$$$
