108003
 OpenBabel09212612403D

 47 48  0  0  1  0  0  0  0  0999 V2000
    0.1420    1.8396    0.0222 O   0  0  0  0  0  0  0  0  0  0  0  0
   -3.4376   -0.9771   -1.9759 O   0  0  0  0  0  0  0  0  0  0  0  0
    2.9236    2.1581   -0.3666 O   0  0  0  0  0  0  0  0  0  0  0  0
    0.3755    1.1155    2.1967 O   0  0  0  0  0  0  0  0  0  0  0  0
    4.6378   -2.1487   -1.3325 O   0  0  0  0  0  0  0  0  0  0  0  0
   -1.8921   -2.6795    1.1826 C   0  0  0  0  0  0  0  0  0  0  0  0
   -3.1747   -2.8630    0.3602 C   0  0  0  0  0  0  0  0  0  0  0  0
   -0.7575   -1.9870    0.4232 C   0  0  0  0  0  0  0  0  0  0  0  0
   -2.3812    1.5400   -1.3356 C   0  0  0  0  0  0  0  0  0  0  0  0
   -1.8585    2.8823   -0.8074 C   0  0  0  0  0  0  0  0  0  0  0  0
   -4.0403   -1.6079    0.2545 C   0  0  0  0  0  0  0  0  0  0  0  0
    0.4987   -1.8663    1.2924 C   0  0  0  0  0  0  0  0  0  0  0  0
   -3.2328    0.7744   -0.3251 C   0  0  0  0  0  0  0  0  0  0  0  0
   -0.9027    2.7559    0.3895 C   0  0  2  0  0  0  0  0  0  0  0  0
   -3.5468   -0.6352   -0.7984 C   0  0  0  0  0  0  0  0  0  0  0  0
    1.6334   -1.1766    0.5653 C   0  0  0  0  0  0  0  0  0  0  0  0
    1.7274    0.2277    0.4297 C   0  0  0  0  0  0  0  0  0  0  0  0
   -0.2807    4.1068    0.7297 C   0  0  0  0  0  0  0  0  0  0  0  0
    0.7036    1.1177    1.0227 C   0  0  0  0  0  0  0  0  0  0  0  0
    2.6202   -1.9779   -0.0392 C   0  0  0  0  0  0  0  0  0  0  0  0
    2.8028    0.7973   -0.2733 C   0  0  0  0  0  0  0  0  0  0  0  0
    3.6692   -1.3913   -0.7429 C   0  0  0  0  0  0  0  0  0  0  0  0
    3.7702   -0.0118   -0.8648 C   0  0  0  0  0  0  0  0  0  0  0  0
    2.2797    2.7136    0.0269 H   0  0  0  0  0  0  0  0  0  0  0  0
    4.6036   -3.0831   -1.2719 H   0  0  0  0  0  0  0  0  0  0  0  0
   -1.5497   -3.6450    1.4914 H   0  0  0  0  0  0  0  0  0  0  0  0
   -2.1424   -2.0467    2.0083 H   0  0  0  0  0  0  0  0  0  0  0  0
   -3.7581   -3.6347    0.8174 H   0  0  0  0  0  0  0  0  0  0  0  0
   -2.8675   -3.1075   -0.6352 H   0  0  0  0  0  0  0  0  0  0  0  0
   -1.0776   -1.0077    0.1345 H   0  0  0  0  0  0  0  0  0  0  0  0
   -0.5182   -2.5751   -0.4382 H   0  0  0  0  0  0  0  0  0  0  0  0
   -1.5423    0.9312   -1.6009 H   0  0  0  0  0  0  0  0  0  0  0  0
   -3.0091    1.7564   -2.1746 H   0  0  0  0  0  0  0  0  0  0  0  0
   -2.6972    3.4747   -0.5065 H   0  0  0  0  0  0  0  0  0  0  0  0
   -1.3000    3.3305   -1.6024 H   0  0  0  0  0  0  0  0  0  0  0  0
   -4.0403   -1.1126    1.2030 H   0  0  0  0  0  0  0  0  0  0  0  0
   -5.0227   -1.9197   -0.0331 H   0  0  0  0  0  0  0  0  0  0  0  0
    0.8172   -2.8477    1.5759 H   0  0  0  0  0  0  0  0  0  0  0  0
    0.2499   -1.2749    2.1487 H   0  0  0  0  0  0  0  0  0  0  0  0
   -4.1519    1.3022   -0.1775 H   0  0  0  0  0  0  0  0  0  0  0  0
   -2.6782    0.7013    0.5870 H   0  0  0  0  0  0  0  0  0  0  0  0
   -1.4432    2.4078    1.2448 H   0  0  0  0  0  0  0  0  0  0  0  0
    0.2649    4.4713   -0.1155 H   0  0  0  0  0  0  0  0  0  0  0  0
    0.3832    3.9945    1.5613 H   0  0  0  0  0  0  0  0  0  0  0  0
   -1.0539    4.8021    0.9820 H   0  0  0  0  0  0  0  0  0  0  0  0
    2.5661   -3.0054    0.0395 H   0  0  0  0  0  0  0  0  0  0  0  0
    4.5537    0.4095   -1.3881 H   0  0  0  0  0  0  0  0  0  0  0  0
  1 14  1  0  0  0  0
  1 19  1  0  0  0  0
  2 15  2  0  0  0  0
  3 21  1  0  0  0  0
  3 24  1  0  0  0  0
  4 19  2  0  0  0  0
  5 22  1  0  0  0  0
  5 25  1  0  0  0  0
  6  7  1  0  0  0  0
  6  8  1  0  0  0  0
  6 26  1  0  0  0  0
  6 27  1  0  0  0  0
  7 11  1  0  0  0  0
  7 28  1  0  0  0  0
  7 29  1  0  0  0  0
  8 12  1  0  0  0  0
  8 30  1  0  0  0  0
  8 31  1  0  0  0  0
  9 10  1  0  0  0  0
  9 13  1  0  0  0  0
  9 32  1  0  0  0  0
  9 33  1  0  0  0  0
 10 14  1  0  0  0  0
 10 34  1  0  0  0  0
 10 35  1  0  0  0  0
 11 15  1  0  0  0  0
 11 36  1  0  0  0  0
 11 37  1  0  0  0  0
 12 16  1  0  0  0  0
 12 38  1  0  0  0  0
 12 39  1  0  0  0  0
 13 15  1  0  0  0  0
 13 40  1  0  0  0  0
 13 41  1  0  0  0  0
 14 18  1  0  0  0  0
 14 42  1  1  0  0  0
 16 17  2  0  0  0  0
 16 20  1  0  0  0  0
 17 19  1  0  0  0  0
 17 21  1  0  0  0  0
 18 43  1  0  0  0  0
 18 44  1  0  0  0  0
 18 45  1  0  0  0  0
 20 22  2  0  0  0  0
 20 46  1  0  0  0  0
 21 23  2  0  0  0  0
 22 23  1  0  0  0  0
 23 47  1  0  0  0  0
M  END
>  <PUBCHEM_COMPOUND_CID>
108003

>  <PUBCHEM_CONFORMER_RMSD>
0.6

>  <PUBCHEM_CONFORMER_DIVERSEORDER>
1
19
4
5
27
13
23
29
34
20
12
18
33
7
16
14
9
28
35
8
36
25
6
30
22
11
26
24
32
21
31
15
17
3
10
2

>  <PUBCHEM_MMFF94_PARTIAL_CHARGES>
21
1 -0.43
11 0.06
12 0.14
13 0.06
14 0.28
15 0.45
16 -0.14
17 0.09
19 0.63
2 -0.57
20 -0.15
21 0.08
22 0.08
23 -0.15
3 -0.53
4 -0.57
44 0.15
45 0.15
46 0.45
47 0.45
5 -0.53

>  <PUBCHEM_EFFECTIVE_ROTOR_COUNT>
2

>  <PUBCHEM_PHARMACOPHORE_FEATURES>
5
1 2 acceptor
1 3 donor
1 4 acceptor
1 5 donor
6 16 17 20 21 22 23 rings

>  <PUBCHEM_HEAVY_ATOM_COUNT>
23

>  <PUBCHEM_ATOM_DEF_STEREO_COUNT>
1

>  <PUBCHEM_ATOM_UDEF_STEREO_COUNT>
0

>  <PUBCHEM_BOND_DEF_STEREO_COUNT>
0

>  <PUBCHEM_BOND_UDEF_STEREO_COUNT>
0

>  <PUBCHEM_ISOTOPIC_ATOM_COUNT>
0

>  <PUBCHEM_COMPONENT_COUNT>
1

>  <PUBCHEM_CACTVS_TAUTO_COUNT>
75

>  <PUBCHEM_CONFORMER_ID>
0001A5E300000001

>  <PUBCHEM_MMFF94_ENERGY>
48.5238

>  <PUBCHEM_FEATURE_SELFOVERLAP>
25.371

>  <PUBCHEM_SHAPE_FINGERPRINT>
104564 63 18268712718798544019
10498660 4 17968364745620382703
108634 29 18335699472820806182
11578080 2 17274810334053540474
116883 192 18411707573519505362
12054548 360 18337107977085508027
121448 382 18266456495337160872
12553582 1 18338224995327010737
12788726 201 18124871253468162937
13402501 40 17828760978095898321
13533116 47 17910675690399931491
13642711 20 17835819855869104164
14251740 79 18195816158723562734
14251745 187 18265325290929377691
14251751 93 18194684756847179878
14251757 17 18334860532374124002
14363568 33 17832730214834916403
14790565 3 18193843626843597289
14931854 50 18191014613104427607
15210252 30 17894910797183881317
17357779 13 18340203089353700235
20645476 183 17835514917153862245
20775438 99 17406792613513556967
21141583 151 18408603699138084795
21634736 98 18339357470586002148
22113638 7 14878339439149863583
221357 26 18410012165228707159
221490 88 18412547596208184596
22907989 373 18047791219316249046
23379529 103 18130234774268092190
23419403 2 17845927541634869800
23557571 272 18269818879167569984
23559900 14 18411695479113223872
23566358 2 18410298021192742532
238 59 17835491071626875039
2748010 2 17541649956410735865
6287921 2 17400092253967063707
6438718 38 17917154866949604531
9709674 26 18411699881169521614
9862522 239 16466130887407034401

>  <PUBCHEM_SHAPE_MULTIPOLES>
443.98
7.17
4.38
1.42
1.5
2.59
0.05
-4.43
-3.55
-1.8
0.87
-0.2
-0.02
1.04

>  <PUBCHEM_SHAPE_SELFOVERLAP>
916.088

>  <PUBCHEM_SHAPE_VOLUME>
252.5

>  <PUBCHEM_COORDINATE_TYPE>
2
5
10

>  <Energy>
38.3969

$$$$
