74597
 OpenBabel09212612393D

 47 48  0  0  0  0  0  0  0  0999 V2000
    1.2562    1.8587   -0.9580 Si  0  0  0  0  0  0  0  0  0  0  0  0
   -1.2469    1.8617    0.9669 Si  0  0  0  0  0  0  0  0  0  0  0  0
    0.0097    1.3161    0.0118 O   0  0  0  0  0  0  0  0  0  0  0  0
    2.1988    0.3763   -1.7223 C   0  0  0  0  0  0  0  0  0  0  0  0
   -2.2111    0.3887    1.7217 C   0  0  0  0  0  0  0  0  0  0  0  0
    0.6024    2.8988   -2.3840 C   0  0  0  0  0  0  0  0  0  0  0  0
    2.4753    2.8971    0.0281 C   0  0  0  0  0  0  0  0  0  0  0  0
   -0.6016    2.8995    2.3981 C   0  0  0  0  0  0  0  0  0  0  0  0
   -2.4457    2.9052   -0.0378 C   0  0  0  0  0  0  0  0  0  0  0  0
    2.7996   -0.5813   -0.7218 C   0  0  0  0  0  0  0  0  0  0  0  0
   -2.8068   -0.5693    0.7184 C   0  0  0  0  0  0  0  0  0  0  0  0
    2.0545   -1.6713   -0.2498 C   0  0  0  0  0  0  0  0  0  0  0  0
   -2.0687   -1.6713    0.2670 C   0  0  0  0  0  0  0  0  0  0  0  0
    4.0965   -0.3814   -0.2301 C   0  0  0  0  0  0  0  0  0  0  0  0
   -4.0940   -0.3582    0.2052 C   0  0  0  0  0  0  0  0  0  0  0  0
    2.5966   -2.5446    0.6932 C   0  0  0  0  0  0  0  0  0  0  0  0
   -2.6053   -2.5462   -0.6766 C   0  0  0  0  0  0  0  0  0  0  0  0
    4.6373   -1.2568    0.7128 C   0  0  0  0  0  0  0  0  0  0  0  0
   -4.6306   -1.2340   -0.7387 C   0  0  0  0  0  0  0  0  0  0  0  0
    3.8879   -2.3375    1.1734 C   0  0  0  0  0  0  0  0  0  0  0  0
   -3.8875   -2.3278   -1.1798 C   0  0  0  0  0  0  0  0  0  0  0  0
    2.9910    0.7635   -2.3285 H   0  0  0  0  0  0  0  0  0  0  0  0
    1.4754   -0.1846   -2.2764 H   0  0  0  0  0  0  0  0  0  0  0  0
   -3.0081    0.7841    2.3160 H   0  0  0  0  0  0  0  0  0  0  0  0
   -1.4982   -0.1761    2.2855 H   0  0  0  0  0  0  0  0  0  0  0  0
   -0.0938    2.3220   -2.9563 H   0  0  0  0  0  0  0  0  0  0  0  0
    1.4169    3.1982   -3.0099 H   0  0  0  0  0  0  0  0  0  0  0  0
    0.1123    3.7675   -1.9965 H   0  0  0  0  0  0  0  0  0  0  0  0
    2.8572    2.3198    0.8440 H   0  0  0  0  0  0  0  0  0  0  0  0
    1.9788    3.7657    0.4073 H   0  0  0  0  0  0  0  0  0  0  0  0
    3.2834    3.1965   -0.6061 H   0  0  0  0  0  0  0  0  0  0  0  0
    0.0829    2.3182    2.9799 H   0  0  0  0  0  0  0  0  0  0  0  0
   -1.4211    3.2070    3.0135 H   0  0  0  0  0  0  0  0  0  0  0  0
   -0.0998    3.7632    2.0146 H   0  0  0  0  0  0  0  0  0  0  0  0
   -2.8216    2.3278   -0.8565 H   0  0  0  0  0  0  0  0  0  0  0  0
   -1.9382    3.7689   -0.4138 H   0  0  0  0  0  0  0  0  0  0  0  0
   -3.2595    3.2128    0.5851 H   0  0  0  0  0  0  0  0  0  0  0  0
    1.0976   -1.8287   -0.6027 H   0  0  0  0  0  0  0  0  0  0  0  0
   -1.1193   -1.8368    0.6363 H   0  0  0  0  0  0  0  0  0  0  0  0
    4.6551    0.4181   -0.5673 H   0  0  0  0  0  0  0  0  0  0  0  0
   -4.6482    0.4504    0.5278 H   0  0  0  0  0  0  0  0  0  0  0  0
    2.0411   -3.3443    1.0353 H   0  0  0  0  0  0  0  0  0  0  0  0
   -2.0538   -3.3553   -1.0025 H   0  0  0  0  0  0  0  0  0  0  0  0
    5.5935   -1.1036    1.0693 H   0  0  0  0  0  0  0  0  0  0  0  0
   -5.5793   -1.0718   -1.1111 H   0  0  0  0  0  0  0  0  0  0  0  0
    4.2893   -2.9843    1.8701 H   0  0  0  0  0  0  0  0  0  0  0  0
   -4.2857   -2.9752   -1.8779 H   0  0  0  0  0  0  0  0  0  0  0  0
  1  3  1  0  0  0  0
  1  4  1  0  0  0  0
  1  6  1  0  0  0  0
  1  7  1  0  0  0  0
  2  3  1  0  0  0  0
  2  5  1  0  0  0  0
  2  8  1  0  0  0  0
  2  9  1  0  0  0  0
  4 10  1  0  0  0  0
  4 22  1  0  0  0  0
  4 23  1  0  0  0  0
  5 11  1  0  0  0  0
  5 24  1  0  0  0  0
  5 25  1  0  0  0  0
  6 26  1  0  0  0  0
  6 27  1  0  0  0  0
  6 28  1  0  0  0  0
  7 29  1  0  0  0  0
  7 30  1  0  0  0  0
  7 31  1  0  0  0  0
  8 32  1  0  0  0  0
  8 33  1  0  0  0  0
  8 34  1  0  0  0  0
  9 35  1  0  0  0  0
  9 36  1  0  0  0  0
  9 37  1  0  0  0  0
 10 12  2  0  0  0  0
 10 14  1  0  0  0  0
 11 13  2  0  0  0  0
 11 15  1  0  0  0  0
 12 16  1  0  0  0  0
 12 38  1  0  0  0  0
 13 17  1  0  0  0  0
 13 39  1  0  0  0  0
 14 18  2  0  0  0  0
 14 40  1  0  0  0  0
 15 19  2  0  0  0  0
 15 41  1  0  0  0  0
 16 20  2  0  0  0  0
 16 42  1  0  0  0  0
 17 21  2  0  0  0  0
 17 43  1  0  0  0  0
 18 20  1  0  0  0  0
 18 44  1  0  0  0  0
 19 21  1  0  0  0  0
 19 45  1  0  0  0  0
 20 46  1  0  0  0  0
 21 47  1  0  0  0  0
M  END
>  <PUBCHEM_COMPOUND_CID>
74597

>  <PUBCHEM_CONFORMER_RMSD>
0.8

>  <PUBCHEM_CONFORMER_DIVERSEORDER>
5
8
35
15
22
14
6
26
9
16
7
27
20
29
10
12
24
37
28
4
13
23
2
18
34
21
31
11
30
17
33
19
36
25
1
3
32

>  <PUBCHEM_MMFF94_PARTIAL_CHARGES>
31
1 0.54
10 -0.14
11 -0.14
12 -0.15
13 -0.15
14 -0.15
15 -0.15
16 -0.15
17 -0.15
18 -0.15
19 -0.15
2 0.54
20 -0.15
21 -0.15
3 -0.59
38 0.15
39 0.15
4 0.06
40 0.15
41 0.15
42 0.15
43 0.15
44 0.15
45 0.15
46 0.15
47 0.15
5 0.06
6 -0.08
7 -0.08
8 -0.08
9 -0.08

>  <PUBCHEM_EFFECTIVE_ROTOR_COUNT>
6

>  <PUBCHEM_PHARMACOPHORE_FEATURES>
2
6 10 12 14 16 18 20 rings
6 11 13 15 17 19 21 rings

>  <PUBCHEM_HEAVY_ATOM_COUNT>
21

>  <PUBCHEM_ATOM_DEF_STEREO_COUNT>
0

>  <PUBCHEM_ATOM_UDEF_STEREO_COUNT>
0

>  <PUBCHEM_BOND_DEF_STEREO_COUNT>
0

>  <PUBCHEM_BOND_UDEF_STEREO_COUNT>
0

>  <PUBCHEM_ISOTOPIC_ATOM_COUNT>
0

>  <PUBCHEM_COMPONENT_COUNT>
1

>  <PUBCHEM_CACTVS_TAUTO_COUNT>
1

>  <PUBCHEM_CONFORMER_ID>
0001236500000005

>  <PUBCHEM_MMFF94_ENERGY>
33.0815

>  <PUBCHEM_FEATURE_SELFOVERLAP>
10.149

>  <PUBCHEM_SHAPE_FINGERPRINT>
11552529 35 18056755434533282842
11578080 2 18338781373422111848
12156800 1 16957827664178997149
12422481 6 17833302751931173425
12539773 59 17975983063619204545
12553582 1 18338537281839972546
12633257 1 17988376896374563249
12788726 201 18200331951952893329
13004483 165 18189324684927465370
13083527 12 18341603867346945448
14081887 123 18130501916906624666
14251757 17 17896856855819338325
14787075 74 18128263487717028200
15003188 105 17194306549437073871
19026451 147 18268702990634919127
192875 21 18334576849562664218
20715895 44 18194961847453747493
21421861 104 18340784718061973985
23419403 2 17982978324178408552
23557571 272 17274834510155215571
23559900 14 18342166786982648256
23598288 3 18125752069730131633
266924 78 17245871338208048501
3380486 145 18043257834223334884
339767 52 18410565180495407370
3797600 57 17561368413571160480
392239 28 18272647970352620208
463206 1 18268713994514711307
5161694 15 15791735217067448603
7471813 234 18341320180382995254

>  <PUBCHEM_SHAPE_MULTIPOLES>
462.73
8.32
4.23
1.85
0.01
1.15
-0.01
-7.02
0.04
-0.03
-0.01
0.02
1.25
-2.46

>  <PUBCHEM_SHAPE_SELFOVERLAP>
915.71

>  <PUBCHEM_SHAPE_VOLUME>
276

>  <PUBCHEM_COORDINATE_TYPE>
2
5
10

>  <Energy>
40.2885

$$$$
