25641
 OpenBabel09212612393D

 35 35  0  0  0  0  0  0  0  0999 V2000
   -0.8972   -0.9660    0.5706 O   0  0  0  0  0  0  0  0  0  0  0  0
   -5.9304    0.9106   -0.6748 O   0  0  0  0  0  0  0  0  0  0  0  0
    3.9416   -0.4471   -0.1095 C   0  0  0  0  0  0  0  0  0  0  0  0
    2.6445    0.2702    0.2720 C   0  0  0  0  0  0  0  0  0  0  0  0
    5.1352    0.5093   -0.1197 C   0  0  0  0  0  0  0  0  0  0  0  0
    1.4675   -0.7047    0.3006 C   0  0  0  0  0  0  0  0  0  0  0  0
    6.4397   -0.2233   -0.4385 C   0  0  0  0  0  0  0  0  0  0  0  0
    0.1564    0.0025    0.6231 C   0  0  0  0  0  0  0  0  0  0  0  0
    7.6331    0.7185   -0.3843 C   0  0  0  0  0  0  0  0  0  0  0  0
   -2.1403   -0.4519    0.3149 C   0  0  0  0  0  0  0  0  0  0  0  0
   -2.5359    0.8503    0.6257 C   0  0  0  0  0  0  0  0  0  0  0  0
   -3.0478   -1.3242   -0.2928 C   0  0  0  0  0  0  0  0  0  0  0  0
   -3.8118    1.2936    0.2797 C   0  0  0  0  0  0  0  0  0  0  0  0
   -4.3295   -0.8823   -0.6357 C   0  0  0  0  0  0  0  0  0  0  0  0
   -4.6955    0.4275   -0.3517 C   0  0  0  0  0  0  0  0  0  0  0  0
   -6.1539    1.7979   -0.4729 H   0  0  0  0  0  0  0  0  0  0  0  0
    3.8290   -0.8716   -1.0852 H   0  0  0  0  0  0  0  0  0  0  0  0
    4.1294   -1.2070    0.6200 H   0  0  0  0  0  0  0  0  0  0  0  0
    2.4452    1.0383   -0.4458 H   0  0  0  0  0  0  0  0  0  0  0  0
    2.7622    0.6913    1.2486 H   0  0  0  0  0  0  0  0  0  0  0  0
    5.2209    0.9684    0.8430 H   0  0  0  0  0  0  0  0  0  0  0  0
    4.9693    1.2442   -0.8795 H   0  0  0  0  0  0  0  0  0  0  0  0
    1.6522   -1.4493    1.0464 H   0  0  0  0  0  0  0  0  0  0  0  0
    1.3776   -1.1471   -0.6695 H   0  0  0  0  0  0  0  0  0  0  0  0
    6.3721   -0.6434   -1.4203 H   0  0  0  0  0  0  0  0  0  0  0  0
    6.5827   -0.9903    0.2938 H   0  0  0  0  0  0  0  0  0  0  0  0
    0.2068    0.4306    1.6025 H   0  0  0  0  0  0  0  0  0  0  0  0
   -0.0252    0.7859   -0.0828 H   0  0  0  0  0  0  0  0  0  0  0  0
    7.5086    1.4941   -1.1108 H   0  0  0  0  0  0  0  0  0  0  0  0
    8.5285    0.1722   -0.5957 H   0  0  0  0  0  0  0  0  0  0  0  0
    7.7016    1.1517    0.5917 H   0  0  0  0  0  0  0  0  0  0  0  0
   -1.8835    1.4853    1.1118 H   0  0  0  0  0  0  0  0  0  0  0  0
   -2.7707   -2.2987   -0.4893 H   0  0  0  0  0  0  0  0  0  0  0  0
   -4.0987    2.2619    0.4920 H   0  0  0  0  0  0  0  0  0  0  0  0
   -4.9963   -1.5223   -1.0948 H   0  0  0  0  0  0  0  0  0  0  0  0
  1  8  1  0  0  0  0
  1 10  1  0  0  0  0
  2 15  1  0  0  0  0
  2 16  1  0  0  0  0
  3  4  1  0  0  0  0
  3  5  1  0  0  0  0
  3 17  1  0  0  0  0
  3 18  1  0  0  0  0
  4  6  1  0  0  0  0
  4 19  1  0  0  0  0
  4 20  1  0  0  0  0
  5  7  1  0  0  0  0
  5 21  1  0  0  0  0
  5 22  1  0  0  0  0
  6  8  1  0  0  0  0
  6 23  1  0  0  0  0
  6 24  1  0  0  0  0
  7  9  1  0  0  0  0
  7 25  1  0  0  0  0
  7 26  1  0  0  0  0
  8 27  1  0  0  0  0
  8 28  1  0  0  0  0
  9 29  1  0  0  0  0
  9 30  1  0  0  0  0
  9 31  1  0  0  0  0
 10 11  2  0  0  0  0
 10 12  1  0  0  0  0
 11 13  1  0  0  0  0
 11 32  1  0  0  0  0
 12 14  2  0  0  0  0
 12 33  1  0  0  0  0
 13 15  2  0  0  0  0
 13 34  1  0  0  0  0
 14 15  1  0  0  0  0
 14 35  1  0  0  0  0
M  END
>  <PUBCHEM_COMPOUND_CID>
25641

>  <PUBCHEM_CONFORMER_RMSD>
0.8

>  <PUBCHEM_CONFORMER_DIVERSEORDER>
1
52
45
22
25
65
23
58
12
56
41
64
36
9
27
38
2
28
11
69
14
60
39
4
33
67
3
21
40
61
7
62
68
66
5
24
16
46
31
15
30
6
50
59
10
13
18
29
17
8
37
55
51
49
32
57
20
48
43
47
34
26
44
63
42
53
19
35
54

>  <PUBCHEM_MMFF94_PARTIAL_CHARGES>
14
1 -0.36
10 0.08
11 -0.15
12 -0.15
13 -0.15
14 -0.15
15 0.08
2 -0.53
31 0.15
32 0.15
33 0.15
34 0.15
35 0.45
8 0.28

>  <PUBCHEM_EFFECTIVE_ROTOR_COUNT>
7

>  <PUBCHEM_PHARMACOPHORE_FEATURES>
5
1 1 acceptor
1 2 donor
1 9 hydrophobe
5 3 4 5 6 7 hydrophobe
6 10 11 12 13 14 15 rings

>  <PUBCHEM_HEAVY_ATOM_COUNT>
15

>  <PUBCHEM_ATOM_DEF_STEREO_COUNT>
0

>  <PUBCHEM_ATOM_UDEF_STEREO_COUNT>
0

>  <PUBCHEM_BOND_DEF_STEREO_COUNT>
0

>  <PUBCHEM_BOND_UDEF_STEREO_COUNT>
0

>  <PUBCHEM_ISOTOPIC_ATOM_COUNT>
0

>  <PUBCHEM_COMPONENT_COUNT>
1

>  <PUBCHEM_CACTVS_TAUTO_COUNT>
2

>  <PUBCHEM_CONFORMER_ID>
0000642900000001

>  <PUBCHEM_MMFF94_ENERGY>
26.8627

>  <PUBCHEM_FEATURE_SELFOVERLAP>
25.371

>  <PUBCHEM_SHAPE_FINGERPRINT>
10968037 39 18272369780471872309
11089746 13 18114180861262787084
11315181 36 17703793638735770104
12091667 2 18409452505124853802
12714333 28 18333732420912129618
13288520 33 12175620676986312587
13533116 47 17095511865596327704
13668630 136 14979956982203597220
1420 363 12535347900815086340
14251718 22 18131071545771548094
14729087 3 18040149626557217620
15048467 5 17894911828318728356
15183329 4 18411421679395798738
15242439 84 17989202659460660938
15348495 7 13118295810419545588
15716309 27 10231755587413297180
17834072 33 18272931644120353514
17834072 8 18273495676173561280
17834076 25 17821447967525137706
17870717 6 17775574143201306591
18335252 98 18260272958519128083
19489759 90 18272371970984314624
200 152 15698000721302130843
20281389 69 17385720292825230900
20645477 70 17845942810528904694
20767249 213 17676207969978926633
21150785 3 16702301270080833480
21267235 1 18270962453466234763
22224240 67 13262401076498565992
2297311 6 17775567546289711009
23035841 295 10807938163417448260
23402539 116 18410290324374003646
23402655 69 18411980230485050931
23466295 7 15337402801045986589
23559900 14 17988352767126929720
2767999 5 17894067412136851516
300161 21 18259701199255057306
351380 3 12391514170298714692
3545911 37 18411700984802134179
42788 4 18412265047610917042
59755656 520 17095240336704058546

>  <PUBCHEM_SHAPE_MULTIPOLES>
296.95
18.06
1.17
0.79
27.07
0.01
0
-3.93
5.25
-1.15
0.02
-0.23
0
-0.18

>  <PUBCHEM_SHAPE_SELFOVERLAP>
585.053

>  <PUBCHEM_SHAPE_VOLUME>
178.8

>  <PUBCHEM_COORDINATE_TYPE>
2
5
10

>  <Energy>
6.19731

$$$$
