5281894
 OpenBabel09212612393D

 28 30  0  0  0  0  0  0  0  0999 V2000
   -0.0271   -0.7083    0.0552 O   0  0  0  0  0  0  0  0  0  0  0  0
   -1.3291    3.1342   -0.2284 O   0  0  0  0  0  0  0  0  0  0  0  0
   -4.4328   -2.4000    0.1977 O   0  0  0  0  0  0  0  0  0  0  0  0
   -1.8887    0.8466   -0.0559 C   0  0  0  0  0  0  0  0  0  0  0  0
   -1.3737   -0.4439    0.0389 C   0  0  0  0  0  0  0  0  0  0  0  0
    0.8600    0.3563   -0.0317 C   0  0  0  0  0  0  0  0  0  0  0  0
    2.2881   -0.0348   -0.0095 C   0  0  0  0  0  0  0  0  0  0  0  0
   -0.9532    1.9722   -0.1504 C   0  0  0  0  0  0  0  0  0  0  0  0
    0.4794    1.6382   -0.1436 C   0  0  0  0  0  0  0  0  0  0  0  0
   -3.2703    1.0647   -0.0635 C   0  0  0  0  0  0  0  0  0  0  0  0
   -2.2415   -1.5312    0.1237 C   0  0  0  0  0  0  0  0  0  0  0  0
   -3.6164   -1.3112    0.1141 C   0  0  0  0  0  0  0  0  0  0  0  0
   -4.1402   -0.0229    0.0221 C   0  0  0  0  0  0  0  0  0  0  0  0
    3.2715    0.7961    0.5534 C   0  0  0  0  0  0  0  0  0  0  0  0
    2.6919   -1.2737   -0.5326 C   0  0  0  0  0  0  0  0  0  0  0  0
    4.6148    0.4128    0.5710 C   0  0  0  0  0  0  0  0  0  0  0  0
    4.0354   -1.6602   -0.5098 C   0  0  0  0  0  0  0  0  0  0  0  0
    4.9961   -0.8150    0.0387 C   0  0  0  0  0  0  0  0  0  0  0  0
   -4.0634   -3.2589    0.2589 H   0  0  0  0  0  0  0  0  0  0  0  0
    1.1871    2.3849   -0.2244 H   0  0  0  0  0  0  0  0  0  0  0  0
   -3.6441    2.0242   -0.1320 H   0  0  0  0  0  0  0  0  0  0  0  0
   -1.8683   -2.4909    0.1932 H   0  0  0  0  0  0  0  0  0  0  0  0
   -5.1615    0.1251    0.0174 H   0  0  0  0  0  0  0  0  0  0  0  0
    2.9971    1.7038    0.9604 H   0  0  0  0  0  0  0  0  0  0  0  0
    1.9870   -1.9081   -0.9396 H   0  0  0  0  0  0  0  0  0  0  0  0
    5.3248    1.0408    0.9792 H   0  0  0  0  0  0  0  0  0  0  0  0
    4.3153   -2.5735   -0.9002 H   0  0  0  0  0  0  0  0  0  0  0  0
    5.9884   -1.0983    0.0504 H   0  0  0  0  0  0  0  0  0  0  0  0
  1  5  1  0  0  0  0
  1  6  1  0  0  0  0
  2  8  2  0  0  0  0
  3 12  1  0  0  0  0
  3 19  1  0  0  0  0
  4  5  2  0  0  0  0
  4  8  1  0  0  0  0
  4 10  1  0  0  0  0
  5 11  1  0  0  0  0
  6  7  1  0  0  0  0
  6  9  2  0  0  0  0
  7 14  2  0  0  0  0
  7 15  1  0  0  0  0
  8  9  1  0  0  0  0
  9 20  1  0  0  0  0
 10 13  2  0  0  0  0
 10 21  1  0  0  0  0
 11 12  2  0  0  0  0
 11 22  1  0  0  0  0
 12 13  1  0  0  0  0
 13 23  1  0  0  0  0
 14 16  1  0  0  0  0
 14 24  1  0  0  0  0
 15 17  2  0  0  0  0
 15 25  1  0  0  0  0
 16 18  2  0  0  0  0
 16 26  1  0  0  0  0
 17 18  1  0  0  0  0
 17 27  1  0  0  0  0
 18 28  1  0  0  0  0
M  END
>  <PUBCHEM_COMPOUND_CID>
5281894

>  <PUBCHEM_CONFORMER_RMSD>
0.6

>  <PUBCHEM_CONFORMER_DIVERSEORDER>
1

>  <PUBCHEM_MMFF94_PARTIAL_CHARGES>
28
1 -0.16
10 -0.15
11 -0.15
12 0.08
13 -0.15
14 -0.15
15 -0.15
16 -0.15
17 -0.15
18 -0.15
19 0.15
2 -0.57
20 0.15
21 0.15
22 0.15
23 0.15
24 0.15
25 0.15
26 0.15
27 0.15
28 0.45
3 -0.53
4 0.09
5 0.08
6 0.05
7 0.03
8 0.47
9 -0.14

>  <PUBCHEM_EFFECTIVE_ROTOR_COUNT>
1

>  <PUBCHEM_PHARMACOPHORE_FEATURES>
6
1 1 acceptor
1 2 acceptor
1 3 donor
6 1 4 5 6 8 9 rings
6 4 5 10 11 12 13 rings
6 7 14 15 16 17 18 rings

>  <PUBCHEM_HEAVY_ATOM_COUNT>
18

>  <PUBCHEM_ATOM_DEF_STEREO_COUNT>
0

>  <PUBCHEM_ATOM_UDEF_STEREO_COUNT>
0

>  <PUBCHEM_BOND_DEF_STEREO_COUNT>
0

>  <PUBCHEM_BOND_UDEF_STEREO_COUNT>
0

>  <PUBCHEM_ISOTOPIC_ATOM_COUNT>
0

>  <PUBCHEM_COMPONENT_COUNT>
1

>  <PUBCHEM_CACTVS_TAUTO_COUNT>
5

>  <PUBCHEM_CONFORMER_ID>
0050986600000001

>  <PUBCHEM_MMFF94_ENERGY>
54.1579

>  <PUBCHEM_FEATURE_SELFOVERLAP>
30.474

>  <PUBCHEM_SHAPE_FINGERPRINT>
10319926 262 18195788710410299706
10608611 8 18341888538122215664
10616163 171 18339362963680771310
10618630 7 18409168817991883924
11046707 91 18408603664783523705
11132069 177 18409729543131309209
11543360 7 14779553434341270563
12032990 46 18410013264534034787
12236239 1 17385444289652400002
12403259 226 18412539890989713984
13140716 1 18410863191549732593
13214271 11 18343016688327807301
13288520 33 18410576179906230190
13296908 3 18411982459752509958
138480 1 15095924238537797308
14115302 16 17603594061733272190
14790565 3 17691127033252091633
15196674 1 18410856576830208266
15352361 1 18410292557678220375
17357779 13 18337090342007833037
17492 89 18337953381558963970
17804303 29 18413392033474754425
17834074 16 18342457006839340102
1813 80 17676209086760127428
19141452 34 18272936037893301751
200 152 17632850910844166101
20261772 1 17989203789280081870
20281475 54 18411426128180343349
20374829 77 18408318882560922731
20510252 161 18270679749290361184
21065201 7 18336542695360341098
21079973 296 18410011048367924338
21267235 1 18409456902949987579
221490 88 18046070625194769139
2297311 6 18341343227430297444
23402539 116 18408597058976252990
23557571 272 18272094834062067420
23559900 14 18340201874378823110
26918003 58 18201434753472578194
2748010 2 18338222882145202221
2871803 45 18408600340669097910
335352 9 18409449194364289397
34934 24 18336257956113546275
4214541 1 18339924805759139192
474 4 16806465763349195492
5104073 3 18271522001531050610
69090 78 18272927198407391102
7364860 26 18050569848161021377
77779 3 18413109446486428114
81228 2 18261967249142730041
8809292 202 18335424560163655866
9709674 26 18199189482025306142

>  <PUBCHEM_SHAPE_MULTIPOLES>
352.82
9.54
2.36
0.68
4.39
0.7
0
-4.43
0.65
-1.72
-0.16
0.24
-0.01
0.69

>  <PUBCHEM_SHAPE_SELFOVERLAP>
787.707

>  <PUBCHEM_SHAPE_VOLUME>
186.4

>  <PUBCHEM_COORDINATE_TYPE>
2
5
10

>  <Energy>
38.5596

$$$$
