4416
 OpenBabel09212612393D

 64 68  0  0  0  0  0  0  0  0999 V2000
   -3.0828   -1.3705    1.2380 O   0  0  0  0  0  0  0  0  0  0  0  0
    6.6228   -3.0150   -0.2569 O   0  0  0  0  0  0  0  0  0  0  0  0
   -6.5124   -0.8187   -0.0698 N   0  3  0  0  0  0  0  0  0  0  0  0
   -6.7032   -1.9168   -1.0177 C   0  0  0  0  0  0  0  0  0  0  0  0
   -7.8119   -0.6414    0.5758 C   0  0  0  0  0  0  0  0  0  0  0  0
   -8.0587   -1.6103   -1.6289 C   0  0  0  0  0  0  0  0  0  0  0  0
   -8.7857   -0.7696   -0.5854 C   0  0  0  0  0  0  0  0  0  0  0  0
   -5.4453   -1.0740    0.9012 C   0  0  0  0  0  0  0  0  0  0  0  0
   -4.0760   -1.1798    0.2275 C   0  0  0  0  0  0  0  0  0  0  0  0
    3.6830    2.2954   -0.5787 C   0  0  0  0  0  0  0  0  0  0  0  0
    4.8104    1.5019    0.0841 C   0  0  0  0  0  0  0  0  0  0  0  0
    2.1139    0.4263    0.0082 C   0  0  0  0  0  0  0  0  0  0  0  0
    2.3184    1.7435   -0.2399 C   0  0  0  0  0  0  0  0  0  0  0  0
    4.5998    0.0178   -0.0642 C   0  0  0  0  0  0  0  0  0  0  0  0
    3.2875   -0.4880   -0.0856 C   0  0  0  0  0  0  0  0  0  0  0  0
    0.7492   -0.0561    0.3119 C   0  0  0  0  0  0  0  0  0  0  0  0
    1.2479    2.7552   -0.2010 C   0  0  0  0  0  0  0  0  0  0  0  0
    5.6924   -0.8633   -0.1122 C   0  0  0  0  0  0  0  0  0  0  0  0
    3.1018   -1.8727   -0.1787 C   0  0  0  0  0  0  0  0  0  0  0  0
   -1.8272   -0.9764    0.8646 C   0  0  0  0  0  0  0  0  0  0  0  0
    0.3078   -0.1475    1.6356 C   0  0  0  0  0  0  0  0  0  0  0  0
   -0.0916   -0.4595   -0.7321 C   0  0  0  0  0  0  0  0  0  0  0  0
    5.4919   -2.2439   -0.2093 C   0  0  0  0  0  0  0  0  0  0  0  0
    4.1909   -2.7390   -0.2458 C   0  0  0  0  0  0  0  0  0  0  0  0
   -0.9786   -0.6081    1.9086 C   0  0  0  0  0  0  0  0  0  0  0  0
   -1.3726   -0.9293   -0.4539 C   0  0  0  0  0  0  0  0  0  0  0  0
    0.9472    3.4152    0.9958 C   0  0  0  0  0  0  0  0  0  0  0  0
    0.5209    3.0614   -1.3568 C   0  0  0  0  0  0  0  0  0  0  0  0
   -0.0671    4.3723    1.0375 C   0  0  0  0  0  0  0  0  0  0  0  0
   -0.4953    4.0163   -1.3150 C   0  0  0  0  0  0  0  0  0  0  0  0
   -0.7889    4.6721   -0.1203 C   0  0  0  0  0  0  0  0  0  0  0  0
    6.4078   -4.4214   -0.3517 C   0  0  0  0  0  0  0  0  0  0  0  0
   -6.2059    0.0272   -0.5503 H   0  0  0  0  0  0  0  0  0  0  0  0
   -6.7130   -2.8613   -0.5150 H   0  0  0  0  0  0  0  0  0  0  0  0
   -5.9203   -1.9875   -1.7436 H   0  0  0  0  0  0  0  0  0  0  0  0
   -7.8854    0.3218    1.0359 H   0  0  0  0  0  0  0  0  0  0  0  0
   -7.9943   -1.3451    1.3610 H   0  0  0  0  0  0  0  0  0  0  0  0
   -8.5962   -2.5150   -1.8229 H   0  0  0  0  0  0  0  0  0  0  0  0
   -7.9695   -1.0983   -2.5641 H   0  0  0  0  0  0  0  0  0  0  0  0
   -9.0253    0.1950   -0.9818 H   0  0  0  0  0  0  0  0  0  0  0  0
   -9.7091   -1.2184   -0.2841 H   0  0  0  0  0  0  0  0  0  0  0  0
   -5.6526   -1.9922    1.4100 H   0  0  0  0  0  0  0  0  0  0  0  0
   -5.4159   -0.2524    1.5860 H   0  0  0  0  0  0  0  0  0  0  0  0
   -4.0691   -2.0113   -0.4459 H   0  0  0  0  0  0  0  0  0  0  0  0
   -3.8699   -0.2856   -0.3229 H   0  0  0  0  0  0  0  0  0  0  0  0
    3.8149    2.2598   -1.6399 H   0  0  0  0  0  0  0  0  0  0  0  0
    3.7303    3.2997   -0.2127 H   0  0  0  0  0  0  0  0  0  0  0  0
    4.8426    1.7464    1.1253 H   0  0  0  0  0  0  0  0  0  0  0  0
    5.7311    1.7606   -0.3957 H   0  0  0  0  0  0  0  0  0  0  0  0
    6.6531   -0.4881   -0.0755 H   0  0  0  0  0  0  0  0  0  0  0  0
    2.1442   -2.2572   -0.1980 H   0  0  0  0  0  0  0  0  0  0  0  0
    0.9339    0.1256    2.4092 H   0  0  0  0  0  0  0  0  0  0  0  0
    0.2382   -0.4086   -1.7087 H   0  0  0  0  0  0  0  0  0  0  0  0
    4.0322   -3.7558   -0.3230 H   0  0  0  0  0  0  0  0  0  0  0  0
   -1.3044   -0.6767    2.8854 H   0  0  0  0  0  0  0  0  0  0  0  0
   -1.9857   -1.2427   -1.2227 H   0  0  0  0  0  0  0  0  0  0  0  0
    1.4786    3.1929    1.8521 H   0  0  0  0  0  0  0  0  0  0  0  0
    0.7372    2.5791   -2.2432 H   0  0  0  0  0  0  0  0  0  0  0  0
   -0.2837    4.8578    1.9220 H   0  0  0  0  0  0  0  0  0  0  0  0
   -1.0302    4.2376   -2.1694 H   0  0  0  0  0  0  0  0  0  0  0  0
   -1.5399    5.3794   -0.0912 H   0  0  0  0  0  0  0  0  0  0  0  0
    7.3513   -4.9251   -0.3820 H   0  0  0  0  0  0  0  0  0  0  0  0
    5.8585   -4.6389   -1.2438 H   0  0  0  0  0  0  0  0  0  0  0  0
    5.8523   -4.7554    0.4996 H   0  0  0  0  0  0  0  0  0  0  0  0
  1  9  1  0  0  0  0
  1 20  1  0  0  0  0
  2 23  1  0  0  0  0
  2 32  1  0  0  0  0
  3  4  1  0  0  0  0
  3  5  1  0  0  0  0
  3  8  1  0  0  0  0
  3 33  1  0  0  0  0
  4  6  1  0  0  0  0
  4 34  1  0  0  0  0
  4 35  1  0  0  0  0
  5  7  1  0  0  0  0
  5 36  1  0  0  0  0
  5 37  1  0  0  0  0
  6  7  1  0  0  0  0
  6 38  1  0  0  0  0
  6 39  1  0  0  0  0
  7 40  1  0  0  0  0
  7 41  1  0  0  0  0
  8  9  1  0  0  0  0
  8 42  1  0  0  0  0
  8 43  1  0  0  0  0
  9 44  1  0  0  0  0
  9 45  1  0  0  0  0
 10 11  1  0  0  0  0
 10 13  1  0  0  0  0
 10 46  1  0  0  0  0
 10 47  1  0  0  0  0
 11 14  1  0  0  0  0
 11 48  1  0  0  0  0
 11 49  1  0  0  0  0
 12 13  2  0  0  0  0
 12 15  1  0  0  0  0
 12 16  1  0  0  0  0
 13 17  1  0  0  0  0
 14 15  2  0  0  0  0
 14 18  1  0  0  0  0
 15 19  1  0  0  0  0
 16 21  2  0  0  0  0
 16 22  1  0  0  0  0
 17 27  2  0  0  0  0
 17 28  1  0  0  0  0
 18 23  2  0  0  0  0
 18 50  1  0  0  0  0
 19 24  2  0  0  0  0
 19 51  1  0  0  0  0
 20 25  2  0  0  0  0
 20 26  1  0  0  0  0
 21 25  1  0  0  0  0
 21 52  1  0  0  0  0
 22 26  2  0  0  0  0
 22 53  1  0  0  0  0
 23 24  1  0  0  0  0
 24 54  1  0  0  0  0
 25 55  1  0  0  0  0
 26 56  1  0  0  0  0
 27 29  1  0  0  0  0
 27 57  1  0  0  0  0
 28 30  2  0  0  0  0
 28 58  1  0  0  0  0
 29 31  2  0  0  0  0
 29 59  1  0  0  0  0
 30 31  1  0  0  0  0
 30 60  1  0  0  0  0
 31 61  1  0  0  0  0
 32 62  1  0  0  0  0
 32 63  1  0  0  0  0
 32 64  1  0  0  0  0
M  CHG  1   3   1
M  END
>  <PUBCHEM_COMPOUND_CID>
4416

>  <PUBCHEM_CONFORMER_RMSD>
1

>  <PUBCHEM_CONFORMER_DIVERSEORDER>
1
11
3
7
10
5
8
6
9
2
4

>  <PUBCHEM_MMFF94_PARTIAL_CHARGES>
42
1 -0.36
10 0.14
11 0.14
12 -0.06
13 -0.17
14 -0.14
15 0.03
16 0.03
17 0.03
18 -0.15
19 -0.15
2 -0.36
20 0.08
21 -0.15
22 -0.15
23 0.08
24 -0.15
25 -0.15
26 -0.15
27 -0.15
28 -0.15
29 -0.15
3 -0.81
30 -0.15
31 -0.15
32 0.28
4 0.27
49 0.15
5 0.27
50 0.15
51 0.15
52 0.15
53 0.15
54 0.15
55 0.15
56 0.15
57 0.15
58 0.15
59 0.15
60 0.15
8 0.27
9 0.28

>  <PUBCHEM_EFFECTIVE_ROTOR_COUNT>
8.4

>  <PUBCHEM_PHARMACOPHORE_FEATURES>
8
1 1 acceptor
1 2 acceptor
1 3 cation
5 3 4 5 6 7 rings
6 10 11 12 13 14 15 rings
6 14 15 18 19 23 24 rings
6 16 20 21 22 25 26 rings
6 17 27 28 29 30 31 rings

>  <PUBCHEM_HEAVY_ATOM_COUNT>
32

>  <PUBCHEM_ATOM_DEF_STEREO_COUNT>
0

>  <PUBCHEM_ATOM_UDEF_STEREO_COUNT>
0

>  <PUBCHEM_BOND_DEF_STEREO_COUNT>
0

>  <PUBCHEM_BOND_UDEF_STEREO_COUNT>
0

>  <PUBCHEM_ISOTOPIC_ATOM_COUNT>
0

>  <PUBCHEM_COMPONENT_COUNT>
1

>  <PUBCHEM_CACTVS_TAUTO_COUNT>
1

>  <PUBCHEM_CONFORMER_ID>
0000114000000001

>  <PUBCHEM_MMFF94_ENERGY>
109.6684

>  <PUBCHEM_FEATURE_SELFOVERLAP>
40.622

>  <PUBCHEM_SHAPE_FINGERPRINT>
10411042 1 18338799993038393062
11115154 58 18409732833635512089
11386260 185 18261943168284286965
11578080 2 11747800793267328300
11720765 8 18341049730793555665
12107698 1 18341893022395146389
12166972 35 18201719587625528025
12342043 65 17171834619388412131
12645989 146 18411703179994899639
13140716 1 18122066400233913232
13835254 42 18343864394381787112
13911987 19 17683552867590147644
14068700 675 17988927769185923065
14294032 229 16700084598889007769
14400156 413 18334850666597447244
14681490 219 18334856087056235331
14725015 67 18261103046721663282
15183329 4 18410856577553317227
15419008 47 17894624856137366037
15420108 30 17403160991105205792
15629462 23 18265896865699700073
15927050 60 17470452829032502202
16992610 120 10159404480170325026
18335252 114 18337100255504222535
18365409 1 17903079932545830421
21033648 29 17387687452392686297
21133410 58 18409444799727905663
21478907 32 18337397045838860616
21703447 108 18336822014706581354
221357 26 18261107491701363373
22224240 67 10159695790020366107
23559900 14 18338233898994883771
249057 25 17917441955960176993
249057 3 18339080505699907719
3103668 31 18042682798247800213
4015057 19 18265617757466306259
4066623 53 18187365415400017580
4144715 1 17825397529620554987
437815 12 18335140882206274007
44317340 157 18122627417415212547
58902169 19 18272645793094500727
59521099 67 18129937988350357553
6004065 56 18338796822529758514
70251023 43 18337954494208162370
9658208 31 16660927806884060907

>  <PUBCHEM_SHAPE_MULTIPOLES>
641.83
19.29
5.52
1.27
39.86
5.4
-0.19
-23.93
5.07
-6.79
0.83
1.31
0.25
-0.07

>  <PUBCHEM_SHAPE_SELFOVERLAP>
1400.72

>  <PUBCHEM_SHAPE_VOLUME>
350.1

>  <PUBCHEM_COORDINATE_TYPE>
2
5
10

>  <Energy>
107.232

$$$$
