6619
 OpenBabel09212612403D

 33 34  0  0  0  0  0  0  0  0999 V2000
    4.6470   -0.2763    2.0386 Cl  0  0  0  0  0  0  0  0  0  0  0  0
   -4.6557   -0.1386   -2.0431 Cl  0  0  0  0  0  0  0  0  0  0  0  0
    2.7429    2.0396   -2.4920 Cl  0  0  0  0  0  0  0  0  0  0  0  0
   -2.7229    1.9742    2.5741 Cl  0  0  0  0  0  0  0  0  0  0  0  0
    4.7220    1.5840   -0.2937 O   0  0  0  0  0  0  0  0  0  0  0  0
   -4.7125    1.6219    0.3658 O   0  0  0  0  0  0  0  0  0  0  0  0
   -0.0136   -1.6748   -0.0314 C   0  0  0  0  0  0  0  0  0  0  0  0
    1.2657   -0.8053   -0.0641 C   0  0  0  0  0  0  0  0  0  0  0  0
   -1.2769   -0.7824    0.0292 C   0  0  0  0  0  0  0  0  0  0  0  0
   -0.0860   -2.6343    1.1874 C   0  0  0  0  0  0  0  0  0  0  0  0
    0.0363   -2.5983   -1.2789 C   0  0  0  0  0  0  0  0  0  0  0  0
    1.4476    0.1329   -1.1035 C   0  0  0  0  0  0  0  0  0  0  0  0
   -1.4456    0.1177    1.1044 C   0  0  0  0  0  0  0  0  0  0  0  0
    2.2826   -0.9070    0.9012 C   0  0  0  0  0  0  0  0  0  0  0  0
   -2.2937   -0.8329   -0.9389 C   0  0  0  0  0  0  0  0  0  0  0  0
    3.4298   -0.1084    0.8248 C   0  0  0  0  0  0  0  0  0  0  0  0
   -3.4332   -0.0285   -0.8275 C   0  0  0  0  0  0  0  0  0  0  0  0
    2.5980    0.9275   -1.1800 C   0  0  0  0  0  0  0  0  0  0  0  0
   -2.5885    0.9180    1.2159 C   0  0  0  0  0  0  0  0  0  0  0  0
    3.5946    0.8077   -0.2144 C   0  0  0  0  0  0  0  0  0  0  0  0
   -3.5890    0.8445    0.2493 C   0  0  0  0  0  0  0  0  0  0  0  0
    5.3927    1.5037    0.3557 H   0  0  0  0  0  0  0  0  0  0  0  0
   -5.3856    1.5727   -0.2841 H   0  0  0  0  0  0  0  0  0  0  0  0
   -0.1234   -2.0616    2.0905 H   0  0  0  0  0  0  0  0  0  0  0  0
    0.7802   -3.2623    1.1989 H   0  0  0  0  0  0  0  0  0  0  0  0
   -0.9648   -3.2402    1.1127 H   0  0  0  0  0  0  0  0  0  0  0  0
    0.0877   -1.9995   -2.1641 H   0  0  0  0  0  0  0  0  0  0  0  0
   -0.8446   -3.2048   -1.3091 H   0  0  0  0  0  0  0  0  0  0  0  0
    0.9004   -3.2270   -1.2229 H   0  0  0  0  0  0  0  0  0  0  0  0
    0.7156    0.2354   -1.8237 H   0  0  0  0  0  0  0  0  0  0  0  0
   -0.7095    0.1869    1.8244 H   0  0  0  0  0  0  0  0  0  0  0  0
    2.1820   -1.5799    1.6772 H   0  0  0  0  0  0  0  0  0  0  0  0
   -2.1989   -1.4722   -1.7435 H   0  0  0  0  0  0  0  0  0  0  0  0
  1 16  1  0  0  0  0
  2 17  1  0  0  0  0
  3 18  1  0  0  0  0
  4 19  1  0  0  0  0
  5 20  1  0  0  0  0
  5 22  1  0  0  0  0
  6 21  1  0  0  0  0
  6 23  1  0  0  0  0
  7  8  1  0  0  0  0
  7  9  1  0  0  0  0
  7 10  1  0  0  0  0
  7 11  1  0  0  0  0
  8 12  2  0  0  0  0
  8 14  1  0  0  0  0
  9 13  2  0  0  0  0
  9 15  1  0  0  0  0
 10 24  1  0  0  0  0
 10 25  1  0  0  0  0
 10 26  1  0  0  0  0
 11 27  1  0  0  0  0
 11 28  1  0  0  0  0
 11 29  1  0  0  0  0
 12 18  1  0  0  0  0
 12 30  1  0  0  0  0
 13 19  1  0  0  0  0
 13 31  1  0  0  0  0
 14 16  2  0  0  0  0
 14 32  1  0  0  0  0
 15 17  2  0  0  0  0
 15 33  1  0  0  0  0
 16 20  1  0  0  0  0
 17 21  1  0  0  0  0
 18 20  2  0  0  0  0
 19 21  2  0  0  0  0
M  END
>  <PUBCHEM_COMPOUND_CID>
6619

>  <PUBCHEM_CONFORMER_RMSD>
0.6

>  <PUBCHEM_CONFORMER_DIVERSEORDER>
1
3
5
4
2

>  <PUBCHEM_MMFF94_PARTIAL_CHARGES>
25
1 -0.18
12 -0.15
13 -0.15
14 -0.15
15 -0.15
16 0.18
17 0.18
18 0.18
19 0.18
2 -0.18
20 0.08
21 0.08
28 0.15
29 0.15
3 -0.18
30 0.15
31 0.15
32 0.45
33 0.45
4 -0.18
5 -0.53
6 -0.53
7 0.29
8 -0.14
9 -0.14

>  <PUBCHEM_EFFECTIVE_ROTOR_COUNT>
2

>  <PUBCHEM_PHARMACOPHORE_FEATURES>
5
1 5 donor
1 6 donor
3 7 10 11 hydrophobe
6 8 12 14 16 18 20 rings
6 9 13 15 17 19 21 rings

>  <PUBCHEM_HEAVY_ATOM_COUNT>
21

>  <PUBCHEM_ATOM_DEF_STEREO_COUNT>
0

>  <PUBCHEM_ATOM_UDEF_STEREO_COUNT>
0

>  <PUBCHEM_BOND_DEF_STEREO_COUNT>
0

>  <PUBCHEM_BOND_UDEF_STEREO_COUNT>
0

>  <PUBCHEM_ISOTOPIC_ATOM_COUNT>
0

>  <PUBCHEM_COMPONENT_COUNT>
1

>  <PUBCHEM_CACTVS_TAUTO_COUNT>
3

>  <PUBCHEM_CONFORMER_ID>
000019DB00000001

>  <PUBCHEM_MMFF94_ENERGY>
69.6414

>  <PUBCHEM_FEATURE_SELFOVERLAP>
25.372

>  <PUBCHEM_SHAPE_FINGERPRINT>
10498660 4 17489582325706005201
10646746 165 17561362855545466376
11045977 3 15719386213809031784
11370993 144 15647043863676898924
11582403 64 15576365062022058959
11640471 11 18410859862474921454
121448 382 17703780449160742415
12156800 1 12387548471917656972
12166972 35 18335126613976821980
12403259 327 15068610587365617056
12507557 5 17821722840820694333
12507560 40 15936411143219976639
12633257 1 16370732525558629873
12670546 177 15698278919139770585
12788726 201 17977099385966299842
12892183 10 15719388417111449832
13583140 156 16733272342853794905
13965767 371 17910399385435003488
14251757 17 15697730202718595864
14739800 52 17915159434267127080
15295992 7 16588020191320263125
15342168 16 18261692406175630293
15653759 3 15285360621568214988
16945 1 17968098564515810654
16988056 13 15106091474532201057
17349148 13 18411135839899014838
17804303 29 13912606013589380011
1813 80 17761783857939592998
18186145 218 18260271823703262847
192875 21 18410845568871596957
19433438 38 15554455093419253524
19765921 60 18411702046017895611
19784866 135 12469178135403440528
20291156 8 9007056842236548737
20715895 44 17827628163740940485
21033650 10 17488206870935136232
21065199 12 15719683142104771992
21475661 188 16516509037471103221
21524375 3 18411141333167565091
21713013 43 14692571026608025981
21864079 5 18338253607845735844
22149856 69 18129682807489629859
22393880 68 16271657702154807804
22907989 373 17912385399903301527
23114952 82 14979684260291042768
23175994 123 16733814290733714602
23184049 59 17748819713925223398
23402539 116 17489007323583656250
23419403 2 15388003507040303578
235170 7 15482669086979602945
23526113 38 14261068719269188431
23557571 272 16630237095704400779
23559900 14 16486976142184957462
2838139 119 17630321068540697176
3323516 105 14045733859146438943
3472631 163 17775000180941669553
351380 180 17023171726433251085
4340502 62 18187658951551951379
469060 322 18058466438093388011
474 4 18336552616302336691
57724786 102 17531259343615795060
633830 44 18338527339185893791
9981440 41 18130500937791796362

>  <PUBCHEM_SHAPE_MULTIPOLES>
427.91
8.89
2.31
2.22
0.23
0.03
-0.6
0.06
4.4
0.06
1.02
-0.09
-0.04
2.45

>  <PUBCHEM_SHAPE_SELFOVERLAP>
889.202

>  <PUBCHEM_SHAPE_VOLUME>
250.6

>  <PUBCHEM_COORDINATE_TYPE>
2
5
10

>  <Energy>
88.1268

$$$$
