8130
 OpenBabel09212612393D

 22 21  0  0  0  0  0  0  0  0999 V2000
    3.4312    1.0799   -0.0170 O   0  0  0  0  0  0  0  0  0  0  0  0
   -0.5334   -0.6567    0.0051 C   0  0  0  0  0  0  0  0  0  0  0  0
   -1.7038    0.3294    0.0190 C   0  0  0  0  0  0  0  0  0  0  0  0
    0.8034    0.0837    0.0308 C   0  0  0  0  0  0  0  0  0  0  0  0
   -3.0478   -0.3957   -0.0354 C   0  0  0  0  0  0  0  0  0  0  0  0
    1.9892   -0.8740   -0.0038 C   0  0  0  0  0  0  0  0  0  0  0  0
   -4.2105    0.5834    0.0043 C   0  0  0  0  0  0  0  0  0  0  0  0
    3.3098   -0.1397    0.0018 C   0  0  0  0  0  0  0  0  0  0  0  0
   -0.5872   -1.2520   -0.8824 H   0  0  0  0  0  0  0  0  0  0  0  0
   -0.5979   -1.2764    0.8750 H   0  0  0  0  0  0  0  0  0  0  0  0
   -1.6233    0.9765   -0.8293 H   0  0  0  0  0  0  0  0  0  0  0  0
   -1.6608    0.8886    0.9302 H   0  0  0  0  0  0  0  0  0  0  0  0
    0.8573    0.6677    0.9257 H   0  0  0  0  0  0  0  0  0  0  0  0
    0.8541    0.7031   -0.8402 H   0  0  0  0  0  0  0  0  0  0  0  0
   -3.1207   -1.0564    0.8031 H   0  0  0  0  0  0  0  0  0  0  0  0
   -3.0986   -0.9405   -0.9549 H   0  0  0  0  0  0  0  0  0  0  0  0
    1.9279   -1.4679   -0.8918 H   0  0  0  0  0  0  0  0  0  0  0  0
    1.9468   -1.4846    0.8738 H   0  0  0  0  0  0  0  0  0  0  0  0
   -4.1776    1.1393    0.9180 H   0  0  0  0  0  0  0  0  0  0  0  0
   -5.1329    0.0442   -0.0521 H   0  0  0  0  0  0  0  0  0  0  0  0
   -4.1391    1.2558   -0.8250 H   0  0  0  0  0  0  0  0  0  0  0  0
    4.1722   -0.7061    0.0229 H   0  0  0  0  0  0  0  0  0  0  0  0
  1  8  2  0  0  0  0
  2  3  1  0  0  0  0
  2  4  1  0  0  0  0
  2  9  1  0  0  0  0
  2 10  1  0  0  0  0
  3  5  1  0  0  0  0
  3 11  1  0  0  0  0
  3 12  1  0  0  0  0
  4  6  1  0  0  0  0
  4 13  1  0  0  0  0
  4 14  1  0  0  0  0
  5  7  1  0  0  0  0
  5 15  1  0  0  0  0
  5 16  1  0  0  0  0
  6  8  1  0  0  0  0
  6 17  1  0  0  0  0
  6 18  1  0  0  0  0
  7 19  1  0  0  0  0
  7 20  1  0  0  0  0
  7 21  1  0  0  0  0
  8 22  1  0  0  0  0
M  END
>  <PUBCHEM_COMPOUND_CID>
8130

>  <PUBCHEM_CONFORMER_RMSD>
0.6

>  <PUBCHEM_CONFORMER_DIVERSEORDER>
1
42
43
16
9
37
29
40
41
12
6
20
18
27
32
11
44
8
22
39
3
28
2
17
4
31
25
13
38
21
36
15
34
5
33
19
35
10
14
26
23
7
24
30

>  <PUBCHEM_MMFF94_PARTIAL_CHARGES>
4
1 -0.57
22 0.06
6 0.06
8 0.45

>  <PUBCHEM_EFFECTIVE_ROTOR_COUNT>
5

>  <PUBCHEM_PHARMACOPHORE_FEATURES>
3
1 1 acceptor
1 7 hydrophobe
5 2 3 4 5 6 hydrophobe

>  <PUBCHEM_HEAVY_ATOM_COUNT>
8

>  <PUBCHEM_ATOM_DEF_STEREO_COUNT>
0

>  <PUBCHEM_ATOM_UDEF_STEREO_COUNT>
0

>  <PUBCHEM_BOND_DEF_STEREO_COUNT>
0

>  <PUBCHEM_BOND_UDEF_STEREO_COUNT>
0

>  <PUBCHEM_ISOTOPIC_ATOM_COUNT>
0

>  <PUBCHEM_COMPONENT_COUNT>
1

>  <PUBCHEM_CACTVS_TAUTO_COUNT>
2

>  <PUBCHEM_CONFORMER_ID>
00001FC200000001

>  <PUBCHEM_MMFF94_ENERGY>
-2.0981

>  <PUBCHEM_FEATURE_SELFOVERLAP>
15.223

>  <PUBCHEM_SHAPE_FINGERPRINT>
11062470 55 18409449180746118607
12932764 1 15769483245073291463
14325111 11 18410573981057145283
14390081 3 18409448089755899144
170605 34 18408041810194735322
190213 19 17346881147710504619
20645477 70 18200031733586253663
20719005 15 18410575089337958283
21293036 1 16200431385851145530
5460574 1 9223229650125527978

>  <PUBCHEM_SHAPE_MULTIPOLES>
158.77
7.59
0.95
0.61
2.23
0.04
0
1.64
0.06
-0.34
0
0.04
-0.01
-0.02

>  <PUBCHEM_SHAPE_SELFOVERLAP>
278.827

>  <PUBCHEM_SHAPE_VOLUME>
104.2

>  <PUBCHEM_COORDINATE_TYPE>
2
5
10

>  <Energy>
-2.25883

$$$$
