91469
 OpenBabel09212612403D

 32 34  0  0  1  0  0  0  0  0999 V2000
    1.4430    1.7845    0.1389 O   0  0  0  0  0  0  0  0  0  0  0  0
    5.8630    0.1640    0.0310 O   0  0  0  0  0  0  0  0  0  0  0  0
   -6.0581   -0.4175    0.2795 O   0  0  0  0  0  0  0  0  0  0  0  0
   -0.4788    0.3542   -0.3973 C   0  0  2  0  0  0  0  0  0  0  0  0
    0.3148   -0.9180   -0.0852 C   0  0  0  0  0  0  0  0  0  0  0  0
    0.0774    1.4933    0.4613 C   0  0  0  0  0  0  0  0  0  0  0  0
    1.7877   -0.6254   -0.0510 C   0  0  0  0  0  0  0  0  0  0  0  0
   -1.9684    0.1529   -0.2108 C   0  0  0  0  0  0  0  0  0  0  0  0
    2.2612    0.6869    0.0685 C   0  0  0  0  0  0  0  0  0  0  0  0
    2.7055   -1.6835   -0.1109 C   0  0  0  0  0  0  0  0  0  0  0  0
   -2.8345    0.3001   -1.3050 C   0  0  0  0  0  0  0  0  0  0  0  0
   -2.5102   -0.1842    1.0397 C   0  0  0  0  0  0  0  0  0  0  0  0
    3.6321    0.9412    0.0803 C   0  0  0  0  0  0  0  0  0  0  0  0
    4.0771   -1.4309   -0.0833 C   0  0  0  0  0  0  0  0  0  0  0  0
    4.5294   -0.1201    0.0085 C   0  0  0  0  0  0  0  0  0  0  0  0
   -4.2105    0.1118   -1.1532 C   0  0  0  0  0  0  0  0  0  0  0  0
   -3.8832   -0.3746    1.1908 C   0  0  0  0  0  0  0  0  0  0  0  0
   -4.7211   -0.2244    0.0941 C   0  0  0  0  0  0  0  0  0  0  0  0
    6.1517    1.0532    0.0933 H   0  0  0  0  0  0  0  0  0  0  0  0
   -6.6494   -0.3234   -0.4413 H   0  0  0  0  0  0  0  0  0  0  0  0
   -0.3602    0.6094   -1.4296 H   0  0  0  0  0  0  0  0  0  0  0  0
    0.1188   -1.6494   -0.8412 H   0  0  0  0  0  0  0  0  0  0  0  0
    0.0134   -1.2871    0.8728 H   0  0  0  0  0  0  0  0  0  0  0  0
   -0.5121    2.3709    0.2966 H   0  0  0  0  0  0  0  0  0  0  0  0
    0.0353    1.1885    1.4861 H   0  0  0  0  0  0  0  0  0  0  0  0
    2.3642   -2.6552   -0.1757 H   0  0  0  0  0  0  0  0  0  0  0  0
   -2.4516    0.5497   -2.2302 H   0  0  0  0  0  0  0  0  0  0  0  0
   -1.8864   -0.2921    1.8548 H   0  0  0  0  0  0  0  0  0  0  0  0
    3.9794    1.9110    0.1419 H   0  0  0  0  0  0  0  0  0  0  0  0
    4.7507   -2.2113   -0.1307 H   0  0  0  0  0  0  0  0  0  0  0  0
   -4.8426    0.2217   -1.9614 H   0  0  0  0  0  0  0  0  0  0  0  0
   -4.2742   -0.6257    2.1123 H   0  0  0  0  0  0  0  0  0  0  0  0
  1  6  1  0  0  0  0
  1  9  1  0  0  0  0
  2 15  1  0  0  0  0
  2 19  1  0  0  0  0
  3 18  1  0  0  0  0
  3 20  1  0  0  0  0
  4  5  1  0  0  0  0
  4  6  1  0  0  0  0
  4  8  1  0  0  0  0
  4 21  1  6  0  0  0
  5  7  1  0  0  0  0
  5 22  1  0  0  0  0
  5 23  1  0  0  0  0
  6 24  1  0  0  0  0
  6 25  1  0  0  0  0
  7  9  2  0  0  0  0
  7 10  1  0  0  0  0
  8 11  2  0  0  0  0
  8 12  1  0  0  0  0
  9 13  1  0  0  0  0
 10 14  2  0  0  0  0
 10 26  1  0  0  0  0
 11 16  1  0  0  0  0
 11 27  1  0  0  0  0
 12 17  2  0  0  0  0
 12 28  1  0  0  0  0
 13 15  2  0  0  0  0
 13 29  1  0  0  0  0
 14 15  1  0  0  0  0
 14 30  1  0  0  0  0
 16 18  2  0  0  0  0
 16 31  1  0  0  0  0
 17 18  1  0  0  0  0
 17 32  1  0  0  0  0
M  END
>  <PUBCHEM_COMPOUND_CID>
91469

>  <PUBCHEM_CONFORMER_RMSD>
0.6

>  <PUBCHEM_CONFORMER_DIVERSEORDER>
1
4
3
2

>  <PUBCHEM_MMFF94_PARTIAL_CHARGES>
27
1 -0.36
10 -0.15
11 -0.15
12 -0.15
13 -0.15
14 -0.15
15 0.08
16 -0.15
17 -0.15
18 0.08
2 -0.53
24 0.15
25 0.15
26 0.15
27 0.15
28 0.15
29 0.15
3 -0.53
30 0.15
31 0.45
32 0.45
4 0.14
5 0.14
6 0.28
7 -0.14
8 -0.14
9 0.08

>  <PUBCHEM_EFFECTIVE_ROTOR_COUNT>
1.8

>  <PUBCHEM_PHARMACOPHORE_FEATURES>
6
1 1 acceptor
1 2 donor
1 3 donor
6 1 4 5 6 7 9 rings
6 7 9 10 13 14 15 rings
6 8 11 12 16 17 18 rings

>  <PUBCHEM_HEAVY_ATOM_COUNT>
18

>  <PUBCHEM_ATOM_DEF_STEREO_COUNT>
1

>  <PUBCHEM_ATOM_UDEF_STEREO_COUNT>
0

>  <PUBCHEM_BOND_DEF_STEREO_COUNT>
0

>  <PUBCHEM_BOND_UDEF_STEREO_COUNT>
0

>  <PUBCHEM_ISOTOPIC_ATOM_COUNT>
0

>  <PUBCHEM_COMPONENT_COUNT>
1

>  <PUBCHEM_CACTVS_TAUTO_COUNT>
6

>  <PUBCHEM_CONFORMER_ID>
0001654D00000001

>  <PUBCHEM_MMFF94_ENERGY>
53.8663

>  <PUBCHEM_FEATURE_SELFOVERLAP>
30.476

>  <PUBCHEM_SHAPE_FINGERPRINT>
10 15 18040990804898392248
11287383 113 17385446539803936564
11471102 20 18411136944185404476
11796584 16 16877938305014941394
12107183 9 17053604911046872411
12236239 1 17489870444838620163
12596602 18 17060334171174383603
13533116 47 17418094273900861087
13760787 5 18272086114829966164
13862211 1 18412822465667917390
14251764 18 18272657831824488537
14252887 29 18059581252415195934
14386348 63 18113057138334541019
14573314 32 17748822986563605047
15048467 5 15626501718427004232
15196674 1 18340206272172217520
15375462 189 17988922262615667568
15961568 22 16009600208201912436
17834072 33 17917709127751519791
17844677 252 17967256390317431805
1813 80 18129678425536687396
18785283 64 18044378459609618924
19141452 34 18334581278433582187
19489759 90 16443062790063994951
200 152 18272649035040207193
20279233 1 17894917321175867531
20645477 70 18336826394819355326
21033648 29 18188755219772919957
21033650 10 15214428794794401430
21267235 1 18341900658540868174
21641784 216 18189071840805059900
22094290 60 16877661240879738445
2297311 6 17095527279637873061
23175994 123 18333735723684419277
23402539 116 13830126183523927905
23557571 272 17168140118004446797
23559900 14 17458062672578925604
26918003 58 18335141998602261603
2871803 45 18261674779561126130
300161 21 17346591963304381959
33824 294 18408321060642429634
34797466 226 16805617961825656390
3545911 37 18410856581252055446
465052 167 18342745121434875807
474 4 17558531759070086928
5104073 3 18268986484730815856
542803 24 17060620001237109779
7495541 125 17676776464745728644

>  <PUBCHEM_SHAPE_MULTIPOLES>
352.82
11.78
1.33
0.95
2.23
0.06
0.04
-1.87
-0.17
-1.28
-0.06
1.1
0.01
0.39

>  <PUBCHEM_SHAPE_SELFOVERLAP>
774.893

>  <PUBCHEM_SHAPE_VOLUME>
190.1

>  <PUBCHEM_COORDINATE_TYPE>
2
5
10

>  <Energy>
28.3633

$$$$
