338733
 OpenBabel09212612393D

 40 40  0  0  0  0  0  0  0  0999 V2000
    6.4653    0.0259    0.9300 O   0  0  0  0  0  0  0  0  0  0  0  0
   -3.6998    0.0050   -0.0696 C   0  0  0  0  0  0  0  0  0  0  0  0
   -4.7635    0.0849    1.0274 C   0  0  0  0  0  0  0  0  0  0  0  0
   -2.2887    0.0376    0.5139 C   0  0  0  0  0  0  0  0  0  0  0  0
   -6.2134    0.0169    0.5119 C   0  0  0  0  0  0  0  0  0  0  0  0
   -1.2466   -0.0269   -0.6019 C   0  0  0  0  0  0  0  0  0  0  0  0
    0.1710   -0.0283   -0.0360 C   0  0  0  0  0  0  0  0  0  0  0  0
    1.2064   -0.0642   -1.1600 C   0  0  0  0  0  0  0  0  0  0  0  0
   -6.4993   -1.2821   -0.2418 C   0  0  0  0  0  0  0  0  0  0  0  0
   -6.5648    1.2249   -0.3577 C   0  0  0  0  0  0  0  0  0  0  0  0
    2.6112   -0.0320   -0.6169 C   0  0  0  0  0  0  0  0  0  0  0  0
    3.2532    1.1943   -0.3902 C   0  0  0  0  0  0  0  0  0  0  0  0
    3.2790   -1.2225   -0.3025 C   0  0  0  0  0  0  0  0  0  0  0  0
    4.5494    1.2288    0.1281 C   0  0  0  0  0  0  0  0  0  0  0  0
    4.5739   -1.1884    0.2147 C   0  0  0  0  0  0  0  0  0  0  0  0
    5.1993    0.0357    0.4243 C   0  0  0  0  0  0  0  0  0  0  0  0
    6.9149    0.8337    1.0831 H   0  0  0  0  0  0  0  0  0  0  0  0
   -3.8211    0.8362   -0.7324 H   0  0  0  0  0  0  0  0  0  0  0  0
   -3.8254   -0.9206   -0.5916 H   0  0  0  0  0  0  0  0  0  0  0  0
   -4.6368    1.0099    1.5500 H   0  0  0  0  0  0  0  0  0  0  0  0
   -4.6212   -0.7704    1.6545 H   0  0  0  0  0  0  0  0  0  0  0  0
   -2.1580   -0.8001    1.1666 H   0  0  0  0  0  0  0  0  0  0  0  0
   -2.1593    0.9511    1.0558 H   0  0  0  0  0  0  0  0  0  0  0  0
   -6.8393    0.0356    1.3795 H   0  0  0  0  0  0  0  0  0  0  0  0
   -1.3664    0.8233   -1.2405 H   0  0  0  0  0  0  0  0  0  0  0  0
   -1.3931   -0.9345   -1.1493 H   0  0  0  0  0  0  0  0  0  0  0  0
    0.2991   -0.8894    0.5861 H   0  0  0  0  0  0  0  0  0  0  0  0
    0.3135    0.8673    0.5318 H   0  0  0  0  0  0  0  0  0  0  0  0
    1.0596    0.7841   -1.7953 H   0  0  0  0  0  0  0  0  0  0  0  0
    1.0780   -0.9754   -1.7060 H   0  0  0  0  0  0  0  0  0  0  0  0
   -5.8859   -1.3290   -1.1172 H   0  0  0  0  0  0  0  0  0  0  0  0
   -7.5303   -1.3095   -0.5268 H   0  0  0  0  0  0  0  0  0  0  0  0
   -6.2820   -2.1169    0.3912 H   0  0  0  0  0  0  0  0  0  0  0  0
   -5.9491    1.2256   -1.2329 H   0  0  0  0  0  0  0  0  0  0  0  0
   -6.3974    2.1245    0.1969 H   0  0  0  0  0  0  0  0  0  0  0  0
   -7.5939    1.1698   -0.6457 H   0  0  0  0  0  0  0  0  0  0  0  0
    2.7645    2.0768   -0.6078 H   0  0  0  0  0  0  0  0  0  0  0  0
    2.8105   -2.1294   -0.4543 H   0  0  0  0  0  0  0  0  0  0  0  0
    5.0211    2.1323    0.2899 H   0  0  0  0  0  0  0  0  0  0  0  0
    5.0653   -2.0673    0.4407 H   0  0  0  0  0  0  0  0  0  0  0  0
  1 16  1  0  0  0  0
  1 17  1  0  0  0  0
  2  3  1  0  0  0  0
  2  4  1  0  0  0  0
  2 18  1  0  0  0  0
  2 19  1  0  0  0  0
  3  5  1  0  0  0  0
  3 20  1  0  0  0  0
  3 21  1  0  0  0  0
  4  6  1  0  0  0  0
  4 22  1  0  0  0  0
  4 23  1  0  0  0  0
  5  9  1  0  0  0  0
  5 10  1  0  0  0  0
  5 24  1  0  0  0  0
  6  7  1  0  0  0  0
  6 25  1  0  0  0  0
  6 26  1  0  0  0  0
  7  8  1  0  0  0  0
  7 27  1  0  0  0  0
  7 28  1  0  0  0  0
  8 11  1  0  0  0  0
  8 29  1  0  0  0  0
  8 30  1  0  0  0  0
  9 31  1  0  0  0  0
  9 32  1  0  0  0  0
  9 33  1  0  0  0  0
 10 34  1  0  0  0  0
 10 35  1  0  0  0  0
 10 36  1  0  0  0  0
 11 12  2  0  0  0  0
 11 13  1  0  0  0  0
 12 14  1  0  0  0  0
 12 37  1  0  0  0  0
 13 15  2  0  0  0  0
 13 38  1  0  0  0  0
 14 16  2  0  0  0  0
 14 39  1  0  0  0  0
 15 16  1  0  0  0  0
 15 40  1  0  0  0  0
M  END
>  <PUBCHEM_COMPOUND_CID>
338733

>  <PUBCHEM_CONFORMER_RMSD>
0.8

>  <PUBCHEM_CONFORMER_DIVERSEORDER>
1
8
18
14
3
9
12
13
5
15
6
10
2
4
16
7
17
11
19

>  <PUBCHEM_MMFF94_PARTIAL_CHARGES>
13
1 -0.53
11 -0.14
12 -0.15
13 -0.15
14 -0.15
15 -0.15
16 0.08
36 0.15
37 0.15
38 0.15
39 0.15
40 0.45
8 0.14

>  <PUBCHEM_EFFECTIVE_ROTOR_COUNT>
7

>  <PUBCHEM_PHARMACOPHORE_FEATURES>
3
1 1 donor
3 5 9 10 hydrophobe
6 11 12 13 14 15 16 rings

>  <PUBCHEM_HEAVY_ATOM_COUNT>
16

>  <PUBCHEM_ATOM_DEF_STEREO_COUNT>
0

>  <PUBCHEM_ATOM_UDEF_STEREO_COUNT>
0

>  <PUBCHEM_BOND_DEF_STEREO_COUNT>
0

>  <PUBCHEM_BOND_UDEF_STEREO_COUNT>
0

>  <PUBCHEM_ISOTOPIC_ATOM_COUNT>
0

>  <PUBCHEM_COMPONENT_COUNT>
1

>  <PUBCHEM_CACTVS_TAUTO_COUNT>
2

>  <PUBCHEM_CONFORMER_ID>
00052B2D00000001

>  <PUBCHEM_MMFF94_ENERGY>
22.9411

>  <PUBCHEM_FEATURE_SELFOVERLAP>
15.223

>  <PUBCHEM_SHAPE_FINGERPRINT>
10354089 29 18202565081912689416
10688039 33 18334013874003534732
11287383 113 18343304781986257803
11724838 91 17917425466720851750
12091667 2 18259705601902217833
12236239 1 18343302561398657455
12596602 18 18202003213943211907
12714333 28 15052015662693982312
12730499 353 12751243614166872428
12916748 109 14979965756610714547
13167372 99 18200599094602800753
13533116 47 18335984173297026402
13964095 4 12612745814086440735
14123238 8 16272211873342450195
14123256 10 15913326893117581597
1420 363 16950285104938738555
14251718 22 13039185901308326501
14251732 16 18130786810830250803
14251764 18 18040154033008858532
14251764 46 16487256560573261326
15183329 4 12612746922219508791
15348495 7 17822583814571275361
15475509 35 16516226476632785112
17834072 33 18202565107545375679
17834072 8 14851603297923264755
17834076 25 15339120134511995862
19489759 90 17676488342024852461
22224240 67 18334571374360122250
23035841 295 11097857397971957017
23081809 10 17822301197248977173
23218964 4 14201397192574738347
23402539 116 18333168371716093197
23536379 177 18408886222545628241
23559900 14 15358272596676870317
26918003 58 18259707808608189777
2767999 5 17346878940456153601
28498 318 15068613873353124363
29717793 49 12757149061350193994
300161 21 17846213358617800887
3472631 163 15913038872452703368
351380 3 13912324603095129617
42788 4 18408888438717123813
4325135 7 14908177547839233041
5374978 207 18413390930032130304
59755656 215 15213292011129187891
7062679 117 13758065304268620101

>  <PUBCHEM_SHAPE_MULTIPOLES>
323.4
19.34
1.18
0.92
16.16
0.02
0
-0.17
3.5
-0.18
-0.09
0.01
-0.01
-0.01

>  <PUBCHEM_SHAPE_SELFOVERLAP>
636.046

>  <PUBCHEM_SHAPE_VOLUME>
195

>  <PUBCHEM_COORDINATE_TYPE>
2
5
10

>  <Energy>
12.2151

$$$$
