14642
 OpenBabel09212612393D

 40 40  0  0  0  0  0  0  0  0999 V2000
   -0.8517   -0.4282    0.1034 O   0  0  0  0  0  0  0  0  0  0  0  0
   -1.9405   -2.4543    0.1325 O   0  0  0  0  0  0  0  0  0  0  0  0
   -6.6705    1.8079   -0.1990 O   0  0  0  0  0  0  0  0  0  0  0  0
    4.0009    0.3547    0.0327 C   0  0  0  0  0  0  0  0  0  0  0  0
    5.3927   -0.2813    0.0568 C   0  0  0  0  0  0  0  0  0  0  0  0
    2.8998   -0.7068    0.0957 C   0  0  0  0  0  0  0  0  0  0  0  0
    6.4963    0.7724   -0.0653 C   0  0  0  0  0  0  0  0  0  0  0  0
    1.5109   -0.0731    0.0469 C   0  0  0  0  0  0  0  0  0  0  0  0
    7.8808    0.1237   -0.1000 C   0  0  0  0  0  0  0  0  0  0  0  0
    0.4037   -1.1191    0.1376 C   0  0  0  0  0  0  0  0  0  0  0  0
    8.9840    1.1582   -0.2593 C   0  0  0  0  0  0  0  0  0  0  0  0
   -1.9422   -1.2355    0.1132 C   0  0  0  0  0  0  0  0  0  0  0  0
   -3.1712   -0.4057    0.0475 C   0  0  0  0  0  0  0  0  0  0  0  0
   -4.3331   -0.9661   -0.4981 C   0  0  0  0  0  0  0  0  0  0  0  0
   -3.1933    0.9114    0.5295 C   0  0  0  0  0  0  0  0  0  0  0  0
   -5.5016   -0.2053   -0.5790 C   0  0  0  0  0  0  0  0  0  0  0  0
   -4.3650    1.6664    0.4551 C   0  0  0  0  0  0  0  0  0  0  0  0
   -5.5084    1.1024   -0.1025 C   0  0  0  0  0  0  0  0  0  0  0  0
   -7.4298    1.4104   -0.5776 H   0  0  0  0  0  0  0  0  0  0  0  0
    3.8909    0.9171   -0.8709 H   0  0  0  0  0  0  0  0  0  0  0  0
    3.9060    0.9892    0.8891 H   0  0  0  0  0  0  0  0  0  0  0  0
    5.4752   -0.9669   -0.7606 H   0  0  0  0  0  0  0  0  0  0  0  0
    5.5138   -0.7858    0.9926 H   0  0  0  0  0  0  0  0  0  0  0  0
    2.9992   -1.2578    1.0076 H   0  0  0  0  0  0  0  0  0  0  0  0
    3.0054   -1.3520   -0.7513 H   0  0  0  0  0  0  0  0  0  0  0  0
    6.4418    1.4334    0.7744 H   0  0  0  0  0  0  0  0  0  0  0  0
    6.3514    1.3096   -0.9792 H   0  0  0  0  0  0  0  0  0  0  0  0
    1.4069    0.4615   -0.8741 H   0  0  0  0  0  0  0  0  0  0  0  0
    1.4164    0.5828    0.8871 H   0  0  0  0  0  0  0  0  0  0  0  0
    7.9235   -0.5581   -0.9236 H   0  0  0  0  0  0  0  0  0  0  0  0
    8.0334   -0.3857    0.8285 H   0  0  0  0  0  0  0  0  0  0  0  0
    0.4711   -1.7938   -0.6901 H   0  0  0  0  0  0  0  0  0  0  0  0
    0.4957   -1.6851    1.0409 H   0  0  0  0  0  0  0  0  0  0  0  0
    8.8516    1.6814   -1.1833 H   0  0  0  0  0  0  0  0  0  0  0  0
    9.9352    0.6681   -0.2601 H   0  0  0  0  0  0  0  0  0  0  0  0
    8.9414    1.8530    0.5533 H   0  0  0  0  0  0  0  0  0  0  0  0
   -4.3258   -1.9398   -0.8399 H   0  0  0  0  0  0  0  0  0  0  0  0
   -2.3409    1.3233    0.9404 H   0  0  0  0  0  0  0  0  0  0  0  0
   -6.3566   -0.6112   -0.9905 H   0  0  0  0  0  0  0  0  0  0  0  0
   -4.3831    2.6351    0.8107 H   0  0  0  0  0  0  0  0  0  0  0  0
  1 10  1  0  0  0  0
  1 12  1  0  0  0  0
  2 12  2  0  0  0  0
  3 18  1  0  0  0  0
  3 19  1  0  0  0  0
  4  5  1  0  0  0  0
  4  6  1  0  0  0  0
  4 20  1  0  0  0  0
  4 21  1  0  0  0  0
  5  7  1  0  0  0  0
  5 22  1  0  0  0  0
  5 23  1  0  0  0  0
  6  8  1  0  0  0  0
  6 24  1  0  0  0  0
  6 25  1  0  0  0  0
  7  9  1  0  0  0  0
  7 26  1  0  0  0  0
  7 27  1  0  0  0  0
  8 10  1  0  0  0  0
  8 28  1  0  0  0  0
  8 29  1  0  0  0  0
  9 11  1  0  0  0  0
  9 30  1  0  0  0  0
  9 31  1  0  0  0  0
 10 32  1  0  0  0  0
 10 33  1  0  0  0  0
 11 34  1  0  0  0  0
 11 35  1  0  0  0  0
 11 36  1  0  0  0  0
 12 13  1  0  0  0  0
 13 14  2  0  0  0  0
 13 15  1  0  0  0  0
 14 16  1  0  0  0  0
 14 37  1  0  0  0  0
 15 17  2  0  0  0  0
 15 38  1  0  0  0  0
 16 18  2  0  0  0  0
 16 39  1  0  0  0  0
 17 18  1  0  0  0  0
 17 40  1  0  0  0  0
M  END
>  <PUBCHEM_COMPOUND_CID>
14642

>  <PUBCHEM_CONFORMER_RMSD>
1

>  <PUBCHEM_CONFORMER_DIVERSEORDER>
1
233
359
48
10
434
195
256
18
360
38
31
23
41
21
313
152
450
349
488
581
515
414
34
223
11
44
6
350
548
14
20
115
166
114
486
189
428
22
290
495
26
90
9
89
396
155
232
505
503
523
299
201
66
214
401
3
578
547
332
62
150
81
177
183
439
76
544
263
453
212
265
113
162
298
68
498
154
106
8
556
543
171
385
507

>  <PUBCHEM_MMFF94_PARTIAL_CHARGES>
16
1 -0.43
10 0.28
12 0.63
13 0.09
14 -0.15
15 -0.15
16 -0.15
17 -0.15
18 0.08
2 -0.57
3 -0.53
36 0.15
37 0.15
38 0.15
39 0.15
40 0.45

>  <PUBCHEM_EFFECTIVE_ROTOR_COUNT>
9

>  <PUBCHEM_PHARMACOPHORE_FEATURES>
6
1 11 hydrophobe
1 2 acceptor
1 3 donor
3 4 6 8 hydrophobe
3 5 7 9 hydrophobe
6 13 14 15 16 17 18 rings

>  <PUBCHEM_HEAVY_ATOM_COUNT>
18

>  <PUBCHEM_ATOM_DEF_STEREO_COUNT>
0

>  <PUBCHEM_ATOM_UDEF_STEREO_COUNT>
0

>  <PUBCHEM_BOND_DEF_STEREO_COUNT>
0

>  <PUBCHEM_BOND_UDEF_STEREO_COUNT>
0

>  <PUBCHEM_ISOTOPIC_ATOM_COUNT>
0

>  <PUBCHEM_COMPONENT_COUNT>
1

>  <PUBCHEM_CACTVS_TAUTO_COUNT>
3

>  <PUBCHEM_CONFORMER_ID>
0000393200000001

>  <PUBCHEM_MMFF94_ENERGY>
26.2906

>  <PUBCHEM_FEATURE_SELFOVERLAP>
30.458

>  <PUBCHEM_SHAPE_FINGERPRINT>
10066227 49 16845302584300805446
10411042 1 17906733958257879239
106641 1 17603592928716292793
10730089 173 18343021086000031633
10968037 39 18202565085548254297
11315181 36 18186802516970138547
11719270 70 17703508814771914862
12091667 2 18413389864500621083
12166972 35 10447926183822088658
125118 31 18336828702171744224
13288520 33 9583517616574068891
13533116 47 17458333106265578282
13668630 136 13686294686416878612
13964095 4 18343303674058788246
1420 363 11386365937743657530
14251764 18 18260826008298176954
14251764 46 18040434400089637543
14556957 393 15195014893949845976
14729087 3 18410853266011991648
15048467 5 18335138687625522744
15183329 4 18273215279565815352
15461852 350 17989205992677081886
155225 1 18336544929097399477
15690457 1 10375869663362019116
15716309 27 7997969068568008264
15778101 99 18408042931165446842
17093844 174 18261393390489049490
17780758 139 12035443931145451775
18643901 69 16128365031003055405
19489759 90 18202565085490329531
195137 175 18335428993598819868
20281389 69 18113897144107439172
20621476 66 18259989288544512222
20621476 8 18261111847230588342
21150785 3 15554446302043139468
220451 1 16950277434760469434
22224240 67 15140962872173837720
22288116 15 17917416666918535887
23402539 116 18343857819234359511
23559900 14 18059848489126797849
246663 6 8214144067085623696
28498 318 18201442455383077294
300161 21 18410292506455111010
33532 11 10375883965972587956
4073 2 18114186371896271658
5283156 175 11095884873768660330
5758199 1 17748826328739180002
59567204 34 18411981338766786257
59682541 35 11314317161484792948
6328613 192 18334862766337535716
636775 72 18412261740276090216

>  <PUBCHEM_SHAPE_MULTIPOLES>
352.82
23.86
1.65
0.68
45.11
0.13
0.01
-11.9
2.93
-2.26
-0.1
-0.21
-0.02
-0.39

>  <PUBCHEM_SHAPE_SELFOVERLAP>
701.078

>  <PUBCHEM_SHAPE_VOLUME>
209.8

>  <PUBCHEM_COORDINATE_TYPE>
2
5
10

>  <Energy>
15.7679

$$$$
