5216
 OpenBabel09212612393D

 25 25  0  0  0  0  0  0  0  0999 V2000
    0.0252   -3.8276    0.0001 Cl  0  0  0  0  0  0  0  0  0  0  0  0
   -2.3411    0.4122   -0.0099 N   0  0  0  0  0  0  0  0  0  0  0  0
    2.3315    0.4465    0.0186 N   0  0  0  0  0  0  0  0  0  0  0  0
   -0.0045    0.4704    0.0020 N   0  0  0  0  0  0  0  0  0  0  0  0
    1.2013   -1.5329   -0.0020 N   0  0  0  0  0  0  0  0  0  0  0  0
   -1.1827   -1.5493    0.0018 N   0  0  0  0  0  0  0  0  0  0  0  0
   -2.4352    1.8504    0.0056 C   0  0  0  0  0  0  0  0  0  0  0  0
    2.3963    1.8852   -0.0035 C   0  0  0  0  0  0  0  0  0  0  0  0
   -1.1333   -0.2305    0.0006 C   0  0  0  0  0  0  0  0  0  0  0  0
    1.1337   -0.2164    0.0027 C   0  0  0  0  0  0  0  0  0  0  0  0
   -3.8946    2.2747   -0.0106 C   0  0  0  0  0  0  0  0  0  0  0  0
    3.8446    2.3447    0.0119 C   0  0  0  0  0  0  0  0  0  0  0  0
    0.0144   -2.1166   -0.0004 C   0  0  0  0  0  0  0  0  0  0  0  0
   -3.1679   -0.1219   -0.0285 H   0  0  0  0  0  0  0  0  0  0  0  0
    3.1679   -0.0721    0.0459 H   0  0  0  0  0  0  0  0  0  0  0  0
   -1.9409    2.2473   -0.8565 H   0  0  0  0  0  0  0  0  0  0  0  0
   -1.9700    2.2238    0.8938 H   0  0  0  0  0  0  0  0  0  0  0  0
    1.8925    2.2751    0.8562 H   0  0  0  0  0  0  0  0  0  0  0  0
    1.9257    2.2426   -0.8955 H   0  0  0  0  0  0  0  0  0  0  0  0
   -4.3642    1.9034   -0.8974 H   0  0  0  0  0  0  0  0  0  0  0  0
   -3.9557    3.3428    0.0049 H   0  0  0  0  0  0  0  0  0  0  0  0
   -4.3913    1.8765    0.8495 H   0  0  0  0  0  0  0  0  0  0  0  0
    4.3217    1.9907    0.9018 H   0  0  0  0  0  0  0  0  0  0  0  0
    3.8798    3.4139   -0.0104 H   0  0  0  0  0  0  0  0  0  0  0  0
    4.3522    1.9532   -0.8448 H   0  0  0  0  0  0  0  0  0  0  0  0
  1 13  1  0  0  0  0
  2  7  1  0  0  0  0
  2  9  1  0  0  0  0
  2 14  1  0  0  0  0
  3  8  1  0  0  0  0
  3 10  1  0  0  0  0
  3 15  1  0  0  0  0
  4  9  2  0  0  0  0
  4 10  1  0  0  0  0
  5 10  2  0  0  0  0
  5 13  1  0  0  0  0
  6  9  1  0  0  0  0
  6 13  2  0  0  0  0
  7 11  1  0  0  0  0
  7 16  1  0  0  0  0
  7 17  1  0  0  0  0
  8 12  1  0  0  0  0
  8 18  1  0  0  0  0
  8 19  1  0  0  0  0
 11 20  1  0  0  0  0
 11 21  1  0  0  0  0
 11 22  1  0  0  0  0
 12 23  1  0  0  0  0
 12 24  1  0  0  0  0
 12 25  1  0  0  0  0
M  END
>  <PUBCHEM_COMPOUND_CID>
5216

>  <PUBCHEM_CONFORMER_RMSD>
0.6

>  <PUBCHEM_CONFORMER_DIVERSEORDER>
1
9
13
10
11
12
4
7
15
3
5
6
8
14
2

>  <PUBCHEM_MMFF94_PARTIAL_CHARGES>
13
1 -0.18
10 0.72
13 0.8
18 0.4
19 0.4
2 -0.87
3 -0.87
4 -0.62
5 -0.62
6 -0.62
7 0.37
8 0.37
9 0.72

>  <PUBCHEM_EFFECTIVE_ROTOR_COUNT>
4

>  <PUBCHEM_PHARMACOPHORE_FEATURES>
5
1 2 donor
1 3 donor
4 2 4 6 9 cation
4 3 4 5 10 cation
6 4 5 6 9 10 13 rings

>  <PUBCHEM_HEAVY_ATOM_COUNT>
13

>  <PUBCHEM_ATOM_DEF_STEREO_COUNT>
0

>  <PUBCHEM_ATOM_UDEF_STEREO_COUNT>
0

>  <PUBCHEM_BOND_DEF_STEREO_COUNT>
0

>  <PUBCHEM_BOND_UDEF_STEREO_COUNT>
0

>  <PUBCHEM_ISOTOPIC_ATOM_COUNT>
0

>  <PUBCHEM_COMPONENT_COUNT>
1

>  <PUBCHEM_CACTVS_TAUTO_COUNT>
5

>  <PUBCHEM_CONFORMER_ID>
0000146000000001

>  <PUBCHEM_MMFF94_ENERGY>
27.2109

>  <PUBCHEM_FEATURE_SELFOVERLAP>
25.414

>  <PUBCHEM_SHAPE_FINGERPRINT>
1 1 18266178340069463527
13380536 305 18195532497444643302
14123255 52 18410573989457695489
14178000 15 17619624679420992697
14648413 74 18192717730887986387
16945 1 18122344571315305635
17134986 127 18410014299542317940
1741750 31 18340486763517463320
19021347 4 18337955691744083538
20510252 161 18198067077915666433
20671657 1 18196095430476690845
20871998 184 17552087607419075638
21426921 1 17978230792426761220
21499 59 18409721846898373493
21524375 3 18333723637134550488
21639500 275 18120922915918837605
2306618 200 17912096250136479112
23402539 116 17839459230397829303
2748010 2 18336560364275658511
305870 269 18408319969361715408
3071541 12 18195811764818654766
3091708 16 9264747200610880386
7364860 26 18123189000397772287
81228 2 17835533986607819506
84936 182 18129093442269435193

>  <PUBCHEM_SHAPE_MULTIPOLES>
244.5
5.22
4.27
0.59
0.3
3.71
0
-7.69
0
-0.2
0
0
0
0.01

>  <PUBCHEM_SHAPE_SELFOVERLAP>
475.74

>  <PUBCHEM_SHAPE_VOLUME>
145.5

>  <PUBCHEM_COORDINATE_TYPE>
2
5
10

>  <Energy>
-239.651

$$$$
