244
 OpenBabel09212612403D

 16 16  0  0  0  0  0  0  0  0999 V2000
    2.7925    0.1089   -0.6641 O   0  0  0  0  0  0  0  0  0  0  0  0
    0.5857    0.0142    0.2970 C   0  0  0  0  0  0  0  0  0  0  0  0
    2.0687    0.0195    0.5549 C   0  0  0  0  0  0  0  0  0  0  0  0
   -0.1189    1.2193    0.1675 C   0  0  0  0  0  0  0  0  0  0  0  0
   -0.1045   -1.1964    0.1414 C   0  0  0  0  0  0  0  0  0  0  0  0
   -1.4907    1.2127   -0.0885 C   0  0  0  0  0  0  0  0  0  0  0  0
   -1.4772   -1.2020   -0.1122 C   0  0  0  0  0  0  0  0  0  0  0  0
   -2.1702    0.0007   -0.2253 C   0  0  0  0  0  0  0  0  0  0  0  0
    3.7440    0.1109   -0.4758 H   0  0  0  0  0  0  0  0  0  0  0  0
    2.3145    0.8590    1.1711 H   0  0  0  0  0  0  0  0  0  0  0  0
    2.3347   -0.8934    1.0455 H   0  0  0  0  0  0  0  0  0  0  0  0
    0.3804    2.1176    0.2622 H   0  0  0  0  0  0  0  0  0  0  0  0
    0.4063   -2.0902    0.2149 H   0  0  0  0  0  0  0  0  0  0  0  0
   -2.0032    2.1040   -0.1767 H   0  0  0  0  0  0  0  0  0  0  0  0
   -1.9788   -2.0979   -0.2159 H   0  0  0  0  0  0  0  0  0  0  0  0
   -3.1855   -0.0039   -0.4101 H   0  0  0  0  0  0  0  0  0  0  0  0
  1  3  1  0  0  0  0
  1  9  1  0  0  0  0
  2  3  1  0  0  0  0
  2  4  2  0  0  0  0
  2  5  1  0  0  0  0
  3 10  1  0  0  0  0
  3 11  1  0  0  0  0
  4  6  1  0  0  0  0
  4 12  1  0  0  0  0
  5  7  2  0  0  0  0
  5 13  1  0  0  0  0
  6  8  2  0  0  0  0
  6 14  1  0  0  0  0
  7  8  1  0  0  0  0
  7 15  1  0  0  0  0
  8 16  1  0  0  0  0
M  END
>  <PUBCHEM_COMPOUND_CID>
244

>  <PUBCHEM_CONFORMER_RMSD>
0.4

>  <PUBCHEM_CONFORMER_DIVERSEORDER>
1

>  <PUBCHEM_MMFF94_PARTIAL_CHARGES>
14
1 -0.68
11 0.15
12 0.15
13 0.15
14 0.15
15 0.15
16 0.4
2 -0.14
3 0.42
4 -0.15
5 -0.15
6 -0.15
7 -0.15
8 -0.15

>  <PUBCHEM_EFFECTIVE_ROTOR_COUNT>
1

>  <PUBCHEM_PHARMACOPHORE_FEATURES>
3
1 1 acceptor
1 1 donor
6 2 4 5 6 7 8 rings

>  <PUBCHEM_HEAVY_ATOM_COUNT>
8

>  <PUBCHEM_ATOM_DEF_STEREO_COUNT>
0

>  <PUBCHEM_ATOM_UDEF_STEREO_COUNT>
0

>  <PUBCHEM_BOND_DEF_STEREO_COUNT>
0

>  <PUBCHEM_BOND_UDEF_STEREO_COUNT>
0

>  <PUBCHEM_ISOTOPIC_ATOM_COUNT>
0

>  <PUBCHEM_COMPONENT_COUNT>
1

>  <PUBCHEM_CACTVS_TAUTO_COUNT>
1

>  <PUBCHEM_CONFORMER_ID>
000000F400000001

>  <PUBCHEM_MMFF94_ENERGY>
18.7456

>  <PUBCHEM_FEATURE_SELFOVERLAP>
15.223

>  <PUBCHEM_SHAPE_FINGERPRINT>
15310529 11 16732976518407068417
16714656 1 18410576184216904725
18185500 45 18261101989336378835
20645464 45 17916850405191731970
21040471 1 18267012856562888449
23552423 10 18188207581251275778
29004967 10 16343701045279990650
369184 2 18412252939581138634
5084963 1 18272369775913199944

>  <PUBCHEM_SHAPE_MULTIPOLES>
158.77
3.06
1.36
0.71
1.48
0
0.01
0
0.45
-0.56
-0.03
0.19
0
0

>  <PUBCHEM_SHAPE_SELFOVERLAP>
324.495

>  <PUBCHEM_SHAPE_VOLUME>
92.4

>  <PUBCHEM_COORDINATE_TYPE>
2
5
10

>  <Energy>
18.5685

$$$$
