3005573
 OpenBabel09212612393D

 58 60  0  0  0  0  0  0  0  0999 V2000
    6.0529   -2.1972   -0.2861 Cl  0  0  0  0  0  0  0  0  0  0  0  0
   -3.6456    1.6117   -0.8870 O   0  0  0  0  0  0  0  0  0  0  0  0
   -6.9544    0.5249    0.5102 N   0  3  0  0  0  0  0  0  0  0  0  0
    1.7690    0.3333    0.0819 C   0  0  0  0  0  0  0  0  0  0  0  0
    2.1649   -0.9582    0.2343 C   0  0  0  0  0  0  0  0  0  0  0  0
    0.3485    0.6752   -0.1601 C   0  0  0  0  0  0  0  0  0  0  0  0
    3.5838   -1.4120    0.5488 C   0  0  0  0  0  0  0  0  0  0  0  0
    2.7731    1.4145    0.1733 C   0  0  0  0  0  0  0  0  0  0  0  0
    1.1990   -2.0753    0.1540 C   0  0  0  0  0  0  0  0  0  0  0  0
   -0.4903    0.9386    0.9274 C   0  0  0  0  0  0  0  0  0  0  0  0
   -0.1565    0.7729   -1.4618 C   0  0  0  0  0  0  0  0  0  0  0  0
    4.3992   -1.6866   -0.7105 C   0  0  0  0  0  0  0  0  0  0  0  0
   -2.3375    1.3371   -0.5820 C   0  0  0  0  0  0  0  0  0  0  0  0
   -1.8245    1.2794    0.7163 C   0  0  0  0  0  0  0  0  0  0  0  0
   -1.4962    1.1063   -1.6702 C   0  0  0  0  0  0  0  0  0  0  0  0
    3.0666    2.0023    1.4101 C   0  0  0  0  0  0  0  0  0  0  0  0
    3.4285    1.8603   -0.9796 C   0  0  0  0  0  0  0  0  0  0  0  0
    0.9175   -2.6782   -1.0769 C   0  0  0  0  0  0  0  0  0  0  0  0
    0.5491   -2.5279    1.3093 C   0  0  0  0  0  0  0  0  0  0  0  0
   -5.9434    0.9678   -0.4728 C   0  0  0  0  0  0  0  0  0  0  0  0
   -4.5657    1.2360    0.1442 C   0  0  0  0  0  0  0  0  0  0  0  0
    4.0247    3.0110    1.4913 C   0  0  0  0  0  0  0  0  0  0  0  0
    4.3878    2.8646   -0.8948 C   0  0  0  0  0  0  0  0  0  0  0  0
   -0.0001   -3.7264   -1.1510 C   0  0  0  0  0  0  0  0  0  0  0  0
   -0.3718   -3.5734    1.2315 C   0  0  0  0  0  0  0  0  0  0  0  0
    4.6876    3.4381    0.3401 C   0  0  0  0  0  0  0  0  0  0  0  0
   -0.6437   -4.1727    0.0022 C   0  0  0  0  0  0  0  0  0  0  0  0
   -8.2399    0.3233   -0.1600 C   0  0  0  0  0  0  0  0  0  0  0  0
   -6.5518   -0.7077    1.1942 C   0  0  0  0  0  0  0  0  0  0  0  0
   -7.0409    1.2555    1.2167 H   0  0  0  0  0  0  0  0  0  0  0  0
    3.5367   -2.3091    1.1301 H   0  0  0  0  0  0  0  0  0  0  0  0
    4.0675   -0.6223    1.0849 H   0  0  0  0  0  0  0  0  0  0  0  0
   -0.1199    0.8804    1.8889 H   0  0  0  0  0  0  0  0  0  0  0  0
    0.4624    0.5983   -2.2690 H   0  0  0  0  0  0  0  0  0  0  0  0
    3.9252   -2.4625   -1.2744 H   0  0  0  0  0  0  0  0  0  0  0  0
    4.4529   -0.7886   -1.2899 H   0  0  0  0  0  0  0  0  0  0  0  0
   -2.4355    1.4897    1.5210 H   0  0  0  0  0  0  0  0  0  0  0  0
   -1.8647    1.1820   -2.6312 H   0  0  0  0  0  0  0  0  0  0  0  0
    2.5736    1.6887    2.2608 H   0  0  0  0  0  0  0  0  0  0  0  0
    3.1998    1.4431   -1.8954 H   0  0  0  0  0  0  0  0  0  0  0  0
    1.3901   -2.3465   -1.9323 H   0  0  0  0  0  0  0  0  0  0  0  0
    0.7518   -2.0871    2.2201 H   0  0  0  0  0  0  0  0  0  0  0  0
   -6.2902    1.8699   -0.9319 H   0  0  0  0  0  0  0  0  0  0  0  0
   -5.8223    0.1731   -1.1790 H   0  0  0  0  0  0  0  0  0  0  0  0
   -4.6432    2.0284    0.8591 H   0  0  0  0  0  0  0  0  0  0  0  0
   -4.2141    0.3500    0.6304 H   0  0  0  0  0  0  0  0  0  0  0  0
    4.2440    3.4421    2.4029 H   0  0  0  0  0  0  0  0  0  0  0  0
    4.8770    3.1846   -1.7453 H   0  0  0  0  0  0  0  0  0  0  0  0
   -0.2024   -4.1715   -2.0599 H   0  0  0  0  0  0  0  0  0  0  0  0
   -0.8515   -3.9031    2.0837 H   0  0  0  0  0  0  0  0  0  0  0  0
    5.4017    4.1805    0.4029 H   0  0  0  0  0  0  0  0  0  0  0  0
   -1.3226   -4.9479   -0.0541 H   0  0  0  0  0  0  0  0  0  0  0  0
   -8.1403   -0.4442   -0.8990 H   0  0  0  0  0  0  0  0  0  0  0  0
   -8.5433    1.2348   -0.6311 H   0  0  0  0  0  0  0  0  0  0  0  0
   -8.9757    0.0318    0.5600 H   0  0  0  0  0  0  0  0  0  0  0  0
   -6.4520   -1.4966    0.4782 H   0  0  0  0  0  0  0  0  0  0  0  0
   -7.2949   -0.9737    1.9167 H   0  0  0  0  0  0  0  0  0  0  0  0
   -5.6148   -0.5525    1.6868 H   0  0  0  0  0  0  0  0  0  0  0  0
  1 12  1  0  0  0  0
  2 13  1  0  0  0  0
  2 21  1  0  0  0  0
  3 20  1  0  0  0  0
  3 28  1  0  0  0  0
  3 29  1  0  0  0  0
  3 30  1  0  0  0  0
  4  5  2  0  0  0  0
  4  6  1  0  0  0  0
  4  8  1  0  0  0  0
  5  7  1  0  0  0  0
  5  9  1  0  0  0  0
  6 10  2  0  0  0  0
  6 11  1  0  0  0  0
  7 12  1  0  0  0  0
  7 31  1  0  0  0  0
  7 32  1  0  0  0  0
  8 16  2  0  0  0  0
  8 17  1  0  0  0  0
  9 18  2  0  0  0  0
  9 19  1  0  0  0  0
 10 14  1  0  0  0  0
 10 33  1  0  0  0  0
 11 15  2  0  0  0  0
 11 34  1  0  0  0  0
 12 35  1  0  0  0  0
 12 36  1  0  0  0  0
 13 14  2  0  0  0  0
 13 15  1  0  0  0  0
 14 37  1  0  0  0  0
 15 38  1  0  0  0  0
 16 22  1  0  0  0  0
 16 39  1  0  0  0  0
 17 23  2  0  0  0  0
 17 40  1  0  0  0  0
 18 24  1  0  0  0  0
 18 41  1  0  0  0  0
 19 25  2  0  0  0  0
 19 42  1  0  0  0  0
 20 21  1  0  0  0  0
 20 43  1  0  0  0  0
 20 44  1  0  0  0  0
 21 45  1  0  0  0  0
 21 46  1  0  0  0  0
 22 26  2  0  0  0  0
 22 47  1  0  0  0  0
 23 26  1  0  0  0  0
 23 48  1  0  0  0  0
 24 27  2  0  0  0  0
 24 49  1  0  0  0  0
 25 27  1  0  0  0  0
 25 50  1  0  0  0  0
 26 51  1  0  0  0  0
 27 52  1  0  0  0  0
 28 53  1  0  0  0  0
 28 54  1  0  0  0  0
 28 55  1  0  0  0  0
 29 56  1  0  0  0  0
 29 57  1  0  0  0  0
 29 58  1  0  0  0  0
M  CHG  1   3   1
M  END
>  <PUBCHEM_COMPOUND_CID>
3005573

>  <PUBCHEM_CONFORMER_RMSD>
1

>  <PUBCHEM_CONFORMER_DIVERSEORDER>
1
9
5
2
8
3
6
7
4

>  <PUBCHEM_MMFF94_PARTIAL_CHARGES>
43
1 -0.29
10 -0.15
11 -0.15
12 0.29
13 0.08
14 -0.15
15 -0.15
16 -0.15
17 -0.15
18 -0.15
19 -0.15
2 -0.36
20 0.27
21 0.28
22 -0.15
23 -0.15
24 -0.15
25 -0.15
26 -0.15
27 -0.15
28 0.27
29 0.27
3 -0.81
32 0.15
33 0.15
36 0.15
37 0.15
38 0.15
39 0.15
4 -0.06
40 0.15
41 0.15
46 0.15
47 0.15
48 0.15
49 0.15
5 -0.17
50 0.15
51 0.15
6 0.03
7 0.14
8 0.03
9 0.03

>  <PUBCHEM_EFFECTIVE_ROTOR_COUNT>
9

>  <PUBCHEM_PHARMACOPHORE_FEATURES>
5
1 2 acceptor
1 3 cation
6 6 10 11 13 14 15 rings
6 8 16 17 22 23 26 rings
6 9 18 19 24 25 27 rings

>  <PUBCHEM_HEAVY_ATOM_COUNT>
29

>  <PUBCHEM_ATOM_DEF_STEREO_COUNT>
0

>  <PUBCHEM_ATOM_UDEF_STEREO_COUNT>
0

>  <PUBCHEM_BOND_DEF_STEREO_COUNT>
1

>  <PUBCHEM_BOND_UDEF_STEREO_COUNT>
0

>  <PUBCHEM_ISOTOPIC_ATOM_COUNT>
0

>  <PUBCHEM_COMPONENT_COUNT>
1

>  <PUBCHEM_CACTVS_TAUTO_COUNT>
1

>  <PUBCHEM_CONFORMER_ID>
002DDC8500000001

>  <PUBCHEM_MMFF94_ENERGY>
105.08

>  <PUBCHEM_FEATURE_SELFOVERLAP>
25.373

>  <PUBCHEM_SHAPE_FINGERPRINT>
10165383 225 18335986471484786060
104564 63 17831855025560516630
10930396 42 18120346811414538842
1100329 8 18411695466328581346
11421498 54 17416968322723007963
11578080 2 17631153372988269306
12035758 1 18266156393694027122
12596602 18 17988927782576967033
12730499 353 18411140259536757945
12788726 201 17398113141721888700
13140716 1 18409438181361396842
13149001 5 18411706461629423766
13583140 156 18124305013860268429
1361 2 18334576867201475797
13692114 37 18342450486778843638
14068700 686 18335138666510253213
146900 427 18202001045264451521
14955137 171 18126564523055515710
15238133 3 11671479210714587866
15439362 3 18411693280385939132
18681886 176 18341607054439279426
19319366 153 18272077306252695831
20028762 73 18272369728843419215
21049683 118 18124571305541752928
21197605 99 18336834190765493347
22149856 69 18188791491689678489
23558518 356 18044645637177725810
23559900 14 18192141595438200797
239999 70 18270120102514807111
283562 15 17691127033905602210
3178227 256 18338234860582183098
350125 39 18409168814039918382
4340502 62 18411134766336707857
437795 51 18342183288483901909
484989 97 18335717047637376418
5171179 24 16907494573022708376
59755656 520 18338789134886393396
7399639 24 18114731660363838677
9658208 31 18268994365764071328

>  <PUBCHEM_SHAPE_MULTIPOLES>
587.83
14.27
4.85
1.38
29.43
3.67
-0.01
-6.95
1.03
-5.49
0.29
-0.2
-0.1
1.22

>  <PUBCHEM_SHAPE_SELFOVERLAP>
1242.833

>  <PUBCHEM_SHAPE_VOLUME>
331.7

>  <PUBCHEM_COORDINATE_TYPE>
2
5
10

>  <Energy>
110.275

$$$$
