8372
 OpenBabel09212612393D

 75 76  0  0  0  0  0  0  0  0999 V2000
    4.7959   -0.0741    0.8709 O   0  0  0  0  0  0  0  0  0  0  0  0
   -4.7373   -0.0857    1.0012 O   0  0  0  0  0  0  0  0  0  0  0  0
    3.6109   -2.6184    0.2919 C   0  0  0  0  0  0  0  0  0  0  0  0
   -3.6244    2.6357    0.2953 C   0  0  0  0  0  0  0  0  0  0  0  0
    3.6444    2.5972    0.2999 C   0  0  0  0  0  0  0  0  0  0  0  0
   -3.6494   -2.6003    0.2726 C   0  0  0  0  0  0  0  0  0  0  0  0
    3.0091   -1.2597   -0.1394 C   0  0  0  0  0  0  0  0  0  0  0  0
   -3.0387    1.2595   -0.1143 C   0  0  0  0  0  0  0  0  0  0  0  0
    3.0433    1.2344   -0.1254 C   0  0  0  0  0  0  0  0  0  0  0  0
   -3.0205   -1.2390   -0.1255 C   0  0  0  0  0  0  0  0  0  0  0  0
    1.2652    0.0099   -1.3057 C   0  0  0  0  0  0  0  0  0  0  0  0
   -1.2699    0.0132   -1.2979 C   0  0  0  0  0  0  0  0  0  0  0  0
   -0.0050    0.0233   -2.1280 C   0  0  0  0  0  0  0  0  0  0  0  0
    3.6013   -0.0219    0.2074 C   0  0  0  0  0  0  0  0  0  0  0  0
   -3.5952    0.0052    0.2518 C   0  0  0  0  0  0  0  0  0  0  0  0
    1.8285   -1.2040   -0.9007 C   0  0  0  0  0  0  0  0  0  0  0  0
   -1.8657    1.2144   -0.8970 C   0  0  0  0  0  0  0  0  0  0  0  0
    1.8747    1.2078   -0.9140 C   0  0  0  0  0  0  0  0  0  0  0  0
   -1.8472   -1.1947   -0.8986 C   0  0  0  0  0  0  0  0  0  0  0  0
    2.8002   -3.8415   -0.2104 C   0  0  0  0  0  0  0  0  0  0  0  0
    3.6363   -2.7172    1.8339 C   0  0  0  0  0  0  0  0  0  0  0  0
    5.0396   -2.7957   -0.2711 C   0  0  0  0  0  0  0  0  0  0  0  0
   -2.7987    3.8472   -0.2262 C   0  0  0  0  0  0  0  0  0  0  0  0
   -3.6336    2.7852    1.8345 C   0  0  0  0  0  0  0  0  0  0  0  0
   -5.0409    2.8320   -0.2947 C   0  0  0  0  0  0  0  0  0  0  0  0
    4.3776    2.5730    1.6657 C   0  0  0  0  0  0  0  0  0  0  0  0
    2.5592    3.6982    0.4438 C   0  0  0  0  0  0  0  0  0  0  0  0
    4.6378    3.0410   -0.7911 C   0  0  0  0  0  0  0  0  0  0  0  0
   -2.8546   -3.8264   -0.2495 C   0  0  0  0  0  0  0  0  0  0  0  0
   -5.0702   -2.7273   -0.3242 C   0  0  0  0  0  0  0  0  0  0  0  0
   -3.7058   -2.7565    1.8094 C   0  0  0  0  0  0  0  0  0  0  0  0
    5.1718   -0.9027    1.0947 H   0  0  0  0  0  0  0  0  0  0  0  0
   -5.1731    0.6929    1.2873 H   0  0  0  0  0  0  0  0  0  0  0  0
   -0.0080   -0.8414   -2.7582 H   0  0  0  0  0  0  0  0  0  0  0  0
   -0.0055    0.9364   -2.6859 H   0  0  0  0  0  0  0  0  0  0  0  0
    1.3636   -2.0855   -1.1687 H   0  0  0  0  0  0  0  0  0  0  0  0
   -1.4291    2.1038   -1.1857 H   0  0  0  0  0  0  0  0  0  0  0  0
    1.4545    2.1018   -1.2126 H   0  0  0  0  0  0  0  0  0  0  0  0
   -1.3990   -2.0808   -1.1796 H   0  0  0  0  0  0  0  0  0  0  0  0
    1.7947   -3.7751    0.1496 H   0  0  0  0  0  0  0  0  0  0  0  0
    3.2505   -4.7415    0.1531 H   0  0  0  0  0  0  0  0  0  0  0  0
    2.7960   -3.8516   -1.2803 H   0  0  0  0  0  0  0  0  0  0  0  0
    2.6443   -2.5935    2.2156 H   0  0  0  0  0  0  0  0  0  0  0  0
    4.2690   -1.9507    2.2301 H   0  0  0  0  0  0  0  0  0  0  0  0
    4.0130   -3.6759    2.1237 H   0  0  0  0  0  0  0  0  0  0  0  0
    5.0135   -2.7260   -1.3386 H   0  0  0  0  0  0  0  0  0  0  0  0
    5.4191   -3.7545    0.0145 H   0  0  0  0  0  0  0  0  0  0  0  0
    5.6752   -2.0293    0.1209 H   0  0  0  0  0  0  0  0  0  0  0  0
   -1.7967    3.7814    0.1434 H   0  0  0  0  0  0  0  0  0  0  0  0
   -3.2459    4.7572    0.1155 H   0  0  0  0  0  0  0  0  0  0  0  0
   -2.7856    3.8359   -1.2960 H   0  0  0  0  0  0  0  0  0  0  0  0
   -2.6425    2.6446    2.2124 H   0  0  0  0  0  0  0  0  0  0  0  0
   -4.2852    2.0511    2.2603 H   0  0  0  0  0  0  0  0  0  0  0  0
   -3.9794    3.7635    2.0958 H   0  0  0  0  0  0  0  0  0  0  0  0
   -5.0025    2.7230   -1.3584 H   0  0  0  0  0  0  0  0  0  0  0  0
   -5.3971    3.8106   -0.0491 H   0  0  0  0  0  0  0  0  0  0  0  0
   -5.7029    2.0982    0.1154 H   0  0  0  0  0  0  0  0  0  0  0  0
    3.6960    2.2658    2.4311 H   0  0  0  0  0  0  0  0  0  0  0  0
    4.7474    3.5519    1.8894 H   0  0  0  0  0  0  0  0  0  0  0  0
    5.1956    1.8848    1.6193 H   0  0  0  0  0  0  0  0  0  0  0  0
    1.8569    3.4103    1.1980 H   0  0  0  0  0  0  0  0  0  0  0  0
    2.0502    3.8214   -0.4892 H   0  0  0  0  0  0  0  0  0  0  0  0
    3.0227    4.6216    0.7219 H   0  0  0  0  0  0  0  0  0  0  0  0
    5.3963    2.2954   -0.9075 H   0  0  0  0  0  0  0  0  0  0  0  0
    5.0898    3.9681   -0.5062 H   0  0  0  0  0  0  0  0  0  0  0  0
    4.1172    3.1678   -1.7173 H   0  0  0  0  0  0  0  0  0  0  0  0
   -2.7805   -3.7756   -1.3157 H   0  0  0  0  0  0  0  0  0  0  0  0
   -3.3620   -4.7259    0.0303 H   0  0  0  0  0  0  0  0  0  0  0  0
   -1.8732   -3.8231    0.1768 H   0  0  0  0  0  0  0  0  0  0  0  0
   -5.0214   -2.6180   -1.3875 H   0  0  0  0  0  0  0  0  0  0  0  0
   -5.6983   -1.9635    0.0845 H   0  0  0  0  0  0  0  0  0  0  0  0
   -5.4739   -3.6883   -0.0826 H   0  0  0  0  0  0  0  0  0  0  0  0
   -2.7191   -2.6673    2.2134 H   0  0  0  0  0  0  0  0  0  0  0  0
   -4.1066   -3.7176    2.0557 H   0  0  0  0  0  0  0  0  0  0  0  0
   -4.3309   -1.9928    2.2228 H   0  0  0  0  0  0  0  0  0  0  0  0
  1 14  1  0  0  0  0
  1 32  1  0  0  0  0
  2 15  1  0  0  0  0
  2 33  1  0  0  0  0
  3  7  1  0  0  0  0
  3 20  1  0  0  0  0
  3 21  1  0  0  0  0
  3 22  1  0  0  0  0
  4  8  1  0  0  0  0
  4 23  1  0  0  0  0
  4 24  1  0  0  0  0
  4 25  1  0  0  0  0
  5  9  1  0  0  0  0
  5 26  1  0  0  0  0
  5 27  1  0  0  0  0
  5 28  1  0  0  0  0
  6 10  1  0  0  0  0
  6 29  1  0  0  0  0
  6 30  1  0  0  0  0
  6 31  1  0  0  0  0
  7 14  2  0  0  0  0
  7 16  1  0  0  0  0
  8 15  2  0  0  0  0
  8 17  1  0  0  0  0
  9 14  1  0  0  0  0
  9 18  2  0  0  0  0
 10 15  1  0  0  0  0
 10 19  2  0  0  0  0
 11 13  1  0  0  0  0
 11 16  2  0  0  0  0
 11 18  1  0  0  0  0
 12 13  1  0  0  0  0
 12 17  2  0  0  0  0
 12 19  1  0  0  0  0
 13 34  1  0  0  0  0
 13 35  1  0  0  0  0
 16 36  1  0  0  0  0
 17 37  1  0  0  0  0
 18 38  1  0  0  0  0
 19 39  1  0  0  0  0
 20 40  1  0  0  0  0
 20 41  1  0  0  0  0
 20 42  1  0  0  0  0
 21 43  1  0  0  0  0
 21 44  1  0  0  0  0
 21 45  1  0  0  0  0
 22 46  1  0  0  0  0
 22 47  1  0  0  0  0
 22 48  1  0  0  0  0
 23 49  1  0  0  0  0
 23 50  1  0  0  0  0
 23 51  1  0  0  0  0
 24 52  1  0  0  0  0
 24 53  1  0  0  0  0
 24 54  1  0  0  0  0
 25 55  1  0  0  0  0
 25 56  1  0  0  0  0
 25 57  1  0  0  0  0
 26 58  1  0  0  0  0
 26 59  1  0  0  0  0
 26 60  1  0  0  0  0
 27 61  1  0  0  0  0
 27 62  1  0  0  0  0
 27 63  1  0  0  0  0
 28 64  1  0  0  0  0
 28 65  1  0  0  0  0
 28 66  1  0  0  0  0
 29 67  1  0  0  0  0
 29 68  1  0  0  0  0
 29 69  1  0  0  0  0
 30 70  1  0  0  0  0
 30 71  1  0  0  0  0
 30 72  1  0  0  0  0
 31 73  1  0  0  0  0
 31 74  1  0  0  0  0
 31 75  1  0  0  0  0
M  END
>  <PUBCHEM_COMPOUND_CID>
8372

>  <PUBCHEM_CONFORMER_RMSD>
0.8

>  <PUBCHEM_CONFORMER_DIVERSEORDER>
1
4
5
2
3
6

>  <PUBCHEM_MMFF94_PARTIAL_CHARGES>
25
1 -0.53
10 -0.14
11 -0.14
12 -0.14
13 0.29
14 0.08
15 0.08
16 -0.15
17 -0.15
18 -0.15
19 -0.15
2 -0.53
3 0.14
34 0.15
35 0.15
36 0.15
37 0.15
4 0.14
5 0.14
6 0.14
7 -0.14
74 0.45
75 0.45
8 -0.14
9 -0.14

>  <PUBCHEM_EFFECTIVE_ROTOR_COUNT>
6

>  <PUBCHEM_PHARMACOPHORE_FEATURES>
8
1 1 donor
1 2 donor
4 3 20 21 22 hydrophobe
4 4 23 24 25 hydrophobe
4 5 26 27 28 hydrophobe
4 6 29 30 31 hydrophobe
6 7 9 11 14 16 18 rings
6 8 10 12 15 17 19 rings

>  <PUBCHEM_HEAVY_ATOM_COUNT>
31

>  <PUBCHEM_ATOM_DEF_STEREO_COUNT>
0

>  <PUBCHEM_ATOM_UDEF_STEREO_COUNT>
0

>  <PUBCHEM_BOND_DEF_STEREO_COUNT>
0

>  <PUBCHEM_BOND_UDEF_STEREO_COUNT>
0

>  <PUBCHEM_ISOTOPIC_ATOM_COUNT>
0

>  <PUBCHEM_COMPONENT_COUNT>
1

>  <PUBCHEM_CACTVS_TAUTO_COUNT>
3

>  <PUBCHEM_CONFORMER_ID>
000020B400000001

>  <PUBCHEM_MMFF94_ENERGY>
154.436

>  <PUBCHEM_FEATURE_SELFOVERLAP>
40.598

>  <PUBCHEM_SHAPE_FINGERPRINT>
10006869 2 18271525394581834663
10670039 82 18195541495950619316
10928967 22 17168419342598103938
11370993 144 18337106765672388388
11405975 8 18410575041718680720
11456790 92 17980768138920520801
11552529 35 18340485659678979375
12107183 9 18122343475861034915
12363563 72 15430302689659147022
12633257 1 18267022747782816029
12892183 10 18339079396948998982
12925494 130 18340763728952580097
12930653 34 18339359772477443860
13004483 165 18340482374609617079
13140716 1 18411136892181593196
13533116 47 18410008858124657071
13583140 156 18273207620927216464
14081887 123 18266744756420175653
14178342 30 18334856155680773276
14466204 15 17617658756852085325
14705955 166 17053554350997488424
14790565 3 18338515361430044748
14950920 106 18341054012643282513
14955137 171 18343019948852017950
15444296 121 18124606284271972442
15537594 2 17387140758426717666
17492 89 18410855477382475198
17809404 112 14996550862960672336
17844677 252 18341618126612046350
17974551 9 18338237067915427867
1813 80 16588315942488665318
19304152 47 17982709051499789928
19315092 285 17243824000111666200
20739085 24 18259979406047064260
21033648 144 18338505361727906237
21033648 29 17344323606798758450
21065198 57 18410573946544244446
21065199 12 18411417327807859918
21703447 108 18339353171250093531
21756936 100 17985822868830025564
21859007 373 17534329051627458173
22393880 68 18342468057932780308
23559900 14 18270961224430394070
23572383 38 17824256218954894099
3117164 225 18338516318099079174
3633792 109 18189878856827564469
3886686 26 18265336101620803739
392239 28 17907579473122085234
4015057 19 18269819974621866941
4144715 1 18412553085081488730
469060 322 17767661116782156631
5104073 3 18411699872189216681
5309563 4 17834116725210697699
5486654 36 18261675865866585730
6371380 46 18046902676007253109
6442390 28 18049724319956505382
6823239 73 18200607895312660910
7097593 13 18337107873969116614
9981440 41 17201634451170521815

>  <PUBCHEM_SHAPE_MULTIPOLES>
626.23
12.14
5.53
1.48
0.07
0.02
-0.27
0.09
-3.4
0.09
-1.11
-0.07
-0.01
-0.01

>  <PUBCHEM_SHAPE_SELFOVERLAP>
1318.774

>  <PUBCHEM_SHAPE_VOLUME>
360.1

>  <PUBCHEM_COORDINATE_TYPE>
2
5
10

>  <Energy>
121.586

$$$$
