156639
 OpenBabel09212612393D

 31 32  0  0  0  0  0  0  0  0999 V2000
   -0.8713   -3.4483    0.1147 Cl  0  0  0  0  0  0  0  0  0  0  0  0
    2.0410   -3.2008    0.2329 Cl  0  0  0  0  0  0  0  0  0  0  0  0
   -4.7249    1.3031   -0.3854 O   0  0  0  0  0  0  0  0  0  0  0  0
    4.9901    2.2201   -0.0179 O   0  0  0  0  0  0  0  0  0  0  0  0
   -0.9386   -0.4171   -0.0929 C   0  0  0  0  0  0  0  0  0  0  0  0
    0.4011   -1.0409   -0.0067 C   0  0  0  0  0  0  0  0  0  0  0  0
    1.6117   -0.1877    0.0041 C   0  0  0  0  0  0  0  0  0  0  0  0
   -1.5484   -0.1878   -1.3311 C   0  0  0  0  0  0  0  0  0  0  0  0
   -1.6009   -0.0523    1.0801 C   0  0  0  0  0  0  0  0  0  0  0  0
    2.1220    0.3014    1.2160 C   0  0  0  0  0  0  0  0  0  0  0  0
    2.2424    0.1522   -1.1990 C   0  0  0  0  0  0  0  0  0  0  0  0
   -3.4859    0.7490   -0.2126 C   0  0  0  0  0  0  0  0  0  0  0  0
   -2.8185    0.3921   -1.3862 C   0  0  0  0  0  0  0  0  0  0  0  0
   -2.8667    0.5275    1.0214 C   0  0  0  0  0  0  0  0  0  0  0  0
    3.2582    1.1123    1.2254 C   0  0  0  0  0  0  0  0  0  0  0  0
    3.3768    0.9631   -1.1874 C   0  0  0  0  0  0  0  0  0  0  0  0
    3.8768    1.4335    0.0209 C   0  0  0  0  0  0  0  0  0  0  0  0
    0.5104   -2.3870    0.0941 C   0  0  0  0  0  0  0  0  0  0  0  0
   -5.4188    1.6655    0.8045 C   0  0  0  0  0  0  0  0  0  0  0  0
    5.3550    2.5551    0.7775 H   0  0  0  0  0  0  0  0  0  0  0  0
   -1.0606   -0.4466   -2.2029 H   0  0  0  0  0  0  0  0  0  0  0  0
   -1.1512   -0.2126    1.9950 H   0  0  0  0  0  0  0  0  0  0  0  0
    1.6554    0.0606    2.1044 H   0  0  0  0  0  0  0  0  0  0  0  0
    1.8675   -0.1976   -2.0947 H   0  0  0  0  0  0  0  0  0  0  0  0
   -3.2667    0.5577   -2.3009 H   0  0  0  0  0  0  0  0  0  0  0  0
   -3.3496    0.7948    1.8933 H   0  0  0  0  0  0  0  0  0  0  0  0
    3.6357    1.4701    2.1167 H   0  0  0  0  0  0  0  0  0  0  0  0
    3.8435    1.2132   -2.0732 H   0  0  0  0  0  0  0  0  0  0  0  0
   -6.3692    2.0856    0.5494 H   0  0  0  0  0  0  0  0  0  0  0  0
   -4.8440    2.3869    1.3469 H   0  0  0  0  0  0  0  0  0  0  0  0
   -5.5644    0.7963    1.4113 H   0  0  0  0  0  0  0  0  0  0  0  0
  1 18  1  0  0  0  0
  2 18  1  0  0  0  0
  3 12  1  0  0  0  0
  3 19  1  0  0  0  0
  4 17  1  0  0  0  0
  4 20  1  0  0  0  0
  5  6  1  0  0  0  0
  5  8  2  0  0  0  0
  5  9  1  0  0  0  0
  6  7  1  0  0  0  0
  6 18  2  0  0  0  0
  7 10  2  0  0  0  0
  7 11  1  0  0  0  0
  8 13  1  0  0  0  0
  8 21  1  0  0  0  0
  9 14  2  0  0  0  0
  9 22  1  0  0  0  0
 10 15  1  0  0  0  0
 10 23  1  0  0  0  0
 11 16  2  0  0  0  0
 11 24  1  0  0  0  0
 12 13  2  0  0  0  0
 12 14  1  0  0  0  0
 13 25  1  0  0  0  0
 14 26  1  0  0  0  0
 15 17  2  0  0  0  0
 15 27  1  0  0  0  0
 16 17  1  0  0  0  0
 16 28  1  0  0  0  0
 19 29  1  0  0  0  0
 19 30  1  0  0  0  0
 19 31  1  0  0  0  0
M  END
>  <PUBCHEM_COMPOUND_CID>
156639

>  <PUBCHEM_CONFORMER_RMSD>
0.6

>  <PUBCHEM_CONFORMER_DIVERSEORDER>
1
2

>  <PUBCHEM_MMFF94_PARTIAL_CHARGES>
28
1 -0.14
10 -0.15
11 -0.15
12 0.08
13 -0.15
14 -0.15
15 -0.15
16 -0.15
17 0.08
18 0.28
19 0.28
2 -0.14
20 0.15
21 0.15
22 0.15
23 0.15
24 0.15
25 0.15
26 0.15
27 0.15
3 -0.36
31 0.45
4 -0.53
5 0.03
6 -0.06
7 0.03
8 -0.15
9 -0.15

>  <PUBCHEM_EFFECTIVE_ROTOR_COUNT>
3

>  <PUBCHEM_PHARMACOPHORE_FEATURES>
4
1 3 acceptor
1 4 donor
6 5 8 9 12 13 14 rings
6 7 10 11 15 16 17 rings

>  <PUBCHEM_HEAVY_ATOM_COUNT>
19

>  <PUBCHEM_ATOM_DEF_STEREO_COUNT>
0

>  <PUBCHEM_ATOM_UDEF_STEREO_COUNT>
0

>  <PUBCHEM_BOND_DEF_STEREO_COUNT>
0

>  <PUBCHEM_BOND_UDEF_STEREO_COUNT>
0

>  <PUBCHEM_ISOTOPIC_ATOM_COUNT>
0

>  <PUBCHEM_COMPONENT_COUNT>
1

>  <PUBCHEM_CACTVS_TAUTO_COUNT>
2

>  <PUBCHEM_CONFORMER_ID>
000263DF00000001

>  <PUBCHEM_MMFF94_ENERGY>
70.617

>  <PUBCHEM_FEATURE_SELFOVERLAP>
20.297

>  <PUBCHEM_SHAPE_FINGERPRINT>
10165383 225 18263097581719300148
10498660 4 18202280307937502137
12173636 292 18122623014060682990
12251169 10 15647051581574939148
12363563 72 9727638314544391232
12633257 1 15936694855917314108
12707595 3 10735875075530818732
12730499 353 18338248085097464099
12788726 201 17686631537826640574
12892183 10 15574699275529304916
13140716 1 18335137549201532307
13878862 14 17904187145593150429
13955234 65 18263650554490424003
13965767 371 18114449137509845004
14123255 52 18410575106190896788
14787075 74 17914894464516917907
15309172 13 18261109694507681918
15342168 16 18407761434766608349
16752209 62 17977087278653562674
1741750 31 18338514256889427442
17868525 174 17400361148973943465
1798214 55 18409168817913074452
1813 80 17554052035171507678
18186145 218 18342176652606312516
18222031 100 11025798678088128024
18785283 64 18261393278451011178
19765921 60 18201710752334513283
19784866 34 18413671301170642945
19862831 5 17489306369382370613
200 152 12031796880724307548
204376 136 18408321103211820123
20510252 161 17907859853257013042
21524375 3 18272367564142406878
21618674 25 18333735689392850057
22079108 93 18342746251654398163
2255824 54 18196932167315720671
23402539 116 18201432619190726308
23402655 69 17132120142922414672
23419403 2 17466275951915190082
23557571 272 18054797440557769580
23559900 14 17096662993529565207
25 1 18273496779821777360
283562 15 17904755927500171178
3082319 5 15913333502386616844
350125 39 18193278477270204444
4028521 119 17775567550210599537
4340502 62 18410580570148965723
458136 41 18409168770853167311
474 4 18412824707013221881
495365 180 18263923242132526867
5104073 3 18188782630818225449
59755656 520 18410855490346225870
6049 1 17461157647914580159
633830 44 18272651233762860725
6442390 28 18337965570533426387
7364860 26 18268426824263815766
7808743 9 18263927816262647756
81228 2 17759807335416960794
8272917 22 18196659493106274943
84936 182 18271804553927503496

>  <PUBCHEM_SHAPE_MULTIPOLES>
383.01
8.71
2.92
1.3
4.44
3.37
-0.13
-8.62
0.63
-1.54
0.36
0.09
-0.33
-0.29

>  <PUBCHEM_SHAPE_SELFOVERLAP>
805.61

>  <PUBCHEM_SHAPE_VOLUME>
217.7

>  <PUBCHEM_COORDINATE_TYPE>
2
5
10

>  <Energy>
50.1598

$$$$
