13507
 OpenBabel09212612403D

 46 49  0  0  0  0  0  0  0  0999 V2000
   -3.1509    4.1144    0.0338 S   0  0  0  0  0  0  0  0  0  0  0  0
   -5.6016   -3.3954    0.0737 S   0  0  0  0  0  0  0  0  0  0  0  0
    6.3047   -1.9998   -0.2359 S   0  0  0  0  0  0  0  0  0  0  0  0
   -0.4086    2.8717   -0.4234 O   0  0  0  0  0  0  0  0  0  0  0  0
   -2.8539    4.6284   -1.4639 O   0  5  0  0  0  0  0  0  0  0  0  0
   -5.5882   -3.7444    1.6510 O   0  5  0  0  0  0  0  0  0  0  0  0
   -4.5770    4.2628    0.2356 O   0  0  0  0  0  0  0  0  0  0  0  0
   -2.1687    4.7174    0.9064 O   0  0  0  0  0  0  0  0  0  0  0  0
    7.0438   -1.5918    1.1401 O   0  5  0  0  0  0  0  0  0  0  0  0
   -6.8418   -2.6917   -0.1702 O   0  0  0  0  0  0  0  0  0  0  0  0
   -5.2300   -4.5810   -0.6626 O   0  0  0  0  0  0  0  0  0  0  0  0
    6.1939   -3.4428   -0.1906 O   0  0  0  0  0  0  0  0  0  0  0  0
    6.9566   -1.3267   -1.3372 O   0  0  0  0  0  0  0  0  0  0  0  0
    0.1838    0.2018   -0.5432 N   0  0  0  0  0  0  0  0  0  0  0  0
    0.7387    0.0208    0.5653 N   0  0  0  0  0  0  0  0  0  0  0  0
   -2.1898   -0.3498   -0.2532 C   0  0  0  0  0  0  0  0  0  0  0  0
   -3.5215    0.0879   -0.0480 C   0  0  0  0  0  0  0  0  0  0  0  0
   -1.1504    0.6154   -0.3429 C   0  0  0  0  0  0  0  0  0  0  0  0
   -2.7648    2.3967   -0.0563 C   0  0  0  0  0  0  0  0  0  0  0  0
   -3.7938    1.4574    0.0624 C   0  0  0  0  0  0  0  0  0  0  0  0
   -1.4485    1.9900   -0.2643 C   0  0  0  0  0  0  0  0  0  0  0  0
   -4.5600   -0.8512    0.0386 C   0  0  0  0  0  0  0  0  0  0  0  0
    4.4670    0.0885    0.0888 C   0  0  0  0  0  0  0  0  0  0  0  0
   -4.2827   -2.2176   -0.0644 C   0  0  0  0  0  0  0  0  0  0  0  0
    3.1375    0.5449    0.2882 C   0  0  0  0  0  0  0  0  0  0  0  0
   -1.9509   -1.7392   -0.3640 C   0  0  0  0  0  0  0  0  0  0  0  0
    4.6738   -1.3137   -0.0309 C   0  0  0  0  0  0  0  0  0  0  0  0
    2.0706   -0.3892    0.3604 C   0  0  0  0  0  0  0  0  0  0  0  0
   -2.9840   -2.6698   -0.2692 C   0  0  0  0  0  0  0  0  0  0  0  0
    3.6125   -2.2269    0.0572 C   0  0  0  0  0  0  0  0  0  0  0  0
    2.3232   -1.7622    0.2634 C   0  0  0  0  0  0  0  0  0  0  0  0
    5.4930    1.0691    0.0259 C   0  0  0  0  0  0  0  0  0  0  0  0
    2.8988    1.9328    0.4073 C   0  0  0  0  0  0  0  0  0  0  0  0
    5.2248    2.4356    0.1351 C   0  0  0  0  0  0  0  0  0  0  0  0
    3.9250    2.8687    0.3237 C   0  0  0  0  0  0  0  0  0  0  0  0
    0.4609    2.5508   -0.5611 H   0  0  0  0  0  0  0  0  0  0  0  0
   -4.7607    1.7755    0.2325 H   0  0  0  0  0  0  0  0  0  0  0  0
   -5.5315   -0.5325    0.1787 H   0  0  0  0  0  0  0  0  0  0  0  0
   -0.9866   -2.0727   -0.5190 H   0  0  0  0  0  0  0  0  0  0  0  0
   -2.7880   -3.6798   -0.3499 H   0  0  0  0  0  0  0  0  0  0  0  0
    3.7910   -3.2395   -0.0310 H   0  0  0  0  0  0  0  0  0  0  0  0
    1.5438   -2.4335    0.3459 H   0  0  0  0  0  0  0  0  0  0  0  0
    6.4694    0.7615   -0.1049 H   0  0  0  0  0  0  0  0  0  0  0  0
    1.9331    2.2624    0.5612 H   0  0  0  0  0  0  0  0  0  0  0  0
    5.9946    3.1202    0.0753 H   0  0  0  0  0  0  0  0  0  0  0  0
    3.7181    3.8767    0.4016 H   0  0  0  0  0  0  0  0  0  0  0  0
  1  5  1  0  0  0  0
  1  7  2  0  0  0  0
  1  8  2  0  0  0  0
  1 19  1  0  0  0  0
  2  6  1  0  0  0  0
  2 10  2  0  0  0  0
  2 11  2  0  0  0  0
  2 24  1  0  0  0  0
  3  9  1  0  0  0  0
  3 12  2  0  0  0  0
  3 13  2  0  0  0  0
  3 27  1  0  0  0  0
  4 21  1  0  0  0  0
  4 36  1  0  0  0  0
 14 15  2  0  0  0  0
 14 18  1  0  0  0  0
 15 28  1  0  0  0  0
 16 17  1  0  0  0  0
 16 18  2  0  0  0  0
 16 26  1  0  0  0  0
 17 20  2  0  0  0  0
 17 22  1  0  0  0  0
 18 21  1  0  0  0  0
 19 20  1  0  0  0  0
 19 21  2  0  0  0  0
 20 37  1  0  0  0  0
 22 24  2  0  0  0  0
 22 38  1  0  0  0  0
 23 25  1  0  0  0  0
 23 27  1  0  0  0  0
 23 32  2  0  0  0  0
 24 29  1  0  0  0  0
 25 28  1  0  0  0  0
 25 33  2  0  0  0  0
 26 29  2  0  0  0  0
 26 39  1  0  0  0  0
 27 30  2  0  0  0  0
 28 31  2  0  0  0  0
 29 40  1  0  0  0  0
 30 31  1  0  0  0  0
 30 41  1  0  0  0  0
 31 42  1  0  0  0  0
 32 34  1  0  0  0  0
 32 43  1  0  0  0  0
 33 35  1  0  0  0  0
 33 44  1  0  0  0  0
 34 35  2  0  0  0  0
 34 45  1  0  0  0  0
 35 46  1  0  0  0  0
M  CHG  3   5  -1   6  -1   9  -1
M  END
>  <PUBCHEM_COMPOUND_CID>
13507

>  <PUBCHEM_CONFORMER_RMSD>
0.8

>  <PUBCHEM_CONFORMER_DIVERSEORDER>
1
6
2
4
7
5
8
3

>  <PUBCHEM_MMFF94_PARTIAL_CHARGES>
45
1 1.49
10 -0.65
11 -0.65
12 -0.65
13 -0.65
14 -0.18
15 -0.18
18 0.18
19 -0.01
2 1.49
20 -0.15
21 0.08
22 -0.15
24 -0.01
26 -0.15
27 -0.01
28 0.18
29 -0.15
3 1.49
30 -0.15
31 -0.15
32 -0.15
33 -0.15
34 -0.15
35 -0.15
36 0.15
37 0.15
38 0.15
39 0.15
4 -0.53
40 0.15
41 0.15
42 0.15
43 0.15
44 0.15
45 0.15
46 0.45
47 0.5
48 0.5
49 0.5
5 -0.68
6 -0.68
7 -0.65
8 -0.65
9 -0.68

>  <PUBCHEM_EFFECTIVE_ROTOR_COUNT>
5

>  <PUBCHEM_PHARMACOPHORE_FEATURES>
17
1 10 acceptor
1 11 acceptor
1 12 acceptor
1 13 acceptor
1 4 donor
1 5 acceptor
1 6 acceptor
1 7 acceptor
1 8 acceptor
1 9 acceptor
4 1 5 7 8 anion
4 2 6 10 11 anion
4 3 9 12 13 anion
6 16 17 18 19 20 21 rings
6 16 17 22 24 26 29 rings
6 23 25 27 28 30 31 rings
6 23 25 32 33 34 35 rings

>  <PUBCHEM_HEAVY_ATOM_COUNT>
35

>  <PUBCHEM_ATOM_DEF_STEREO_COUNT>
0

>  <PUBCHEM_ATOM_UDEF_STEREO_COUNT>
0

>  <PUBCHEM_BOND_DEF_STEREO_COUNT>
0

>  <PUBCHEM_BOND_UDEF_STEREO_COUNT>
0

>  <PUBCHEM_ISOTOPIC_ATOM_COUNT>
0

>  <PUBCHEM_COMPONENT_COUNT>
1

>  <PUBCHEM_CACTVS_TAUTO_COUNT>
3

>  <PUBCHEM_CONFORMER_ID>
000034C300000001

>  <PUBCHEM_MMFF94_ENERGY>
86.9966

>  <PUBCHEM_FEATURE_SELFOVERLAP>
86.503

>  <PUBCHEM_SHAPE_FINGERPRINT>
10050765 1 18411136927259210624
10319926 262 18341884157160316832
10411042 1 18338797944370823263
10595046 47 18408324410906311380
10940486 97 18189908525882000628
11062273 19 17541943534985244493
11227688 84 18198043967288036479
11763715 3 18191327028972933637
11963148 33 18121772005142008146
12107183 9 17904757783067721282
12107698 1 18409448098541616654
12516196 113 18194400220065552787
12788726 201 18261945341078789747
13248334 5 17618784004862778705
13690498 29 18341620321382565734
13782708 43 17846498170515439046
14347332 77 18411417323803400134
14394314 77 18267589194715549843
14790565 3 17907581320238519705
15042514 8 18410857672917332797
15064981 194 18336840688629155605
15082195 135 17823708645279090476
15131766 46 15695156435393291881
15230672 131 17832427501757558886
15250474 111 18189043201614807698
15320467 1 18123187067836724758
15361156 5 18188225250777964186
15890870 6 17907579125705689521
15927050 60 18050284774360568683
17492 89 18411135848989868962
17844677 252 18411705365974789552
18393751 57 17335879662318934592
18608769 82 18269552922345601288
19301679 30 18338803411315720771
19311894 1 18266741286092421248
21033648 144 18264757784327782140
21049683 271 17756145944975358389
21133410 171 17543854275214479123
21792965 96 18126593165706836628
21796203 349 17758149225159854915
23559900 14 18269545070913223672
23576562 1 18335434452486345068
249057 3 18194964046023653420
4046055 25 18337105799948357757
4073 2 18261679186514219658
4144715 1 18269561533649287714
5104073 3 18343861126243029416
513202 73 18410580595607708691
57527295 17 18187653458331140170
6004065 56 17905601456685213219
6057620 51 18190184679847749300
6698420 124 17985268461108172577
6700243 42 17914368790041360284

>  <PUBCHEM_SHAPE_MULTIPOLES>
663.18
17.34
6.37
0.85
12.33
3.77
0.04
-15.04
0.16
-9.6
0.02
-0.07
-0.05
0.72

>  <PUBCHEM_SHAPE_SELFOVERLAP>
1441.096

>  <PUBCHEM_SHAPE_VOLUME>
362.8

>  <PUBCHEM_COORDINATE_TYPE>
2
5
10

>  <Energy>
-6.55165

$$$$
