254232
 OpenBabel09212612393D

 40 41  0  0  1  0  0  0  0  0999 V2000
   -4.3073   -1.1114    1.2403 O   0  0  0  0  0  0  0  0  0  0  0  0
   -5.0907   -0.4169   -0.7178 O   0  0  0  0  0  0  0  0  0  0  0  0
    5.9762   -0.2329   -0.3569 O   0  0  0  0  0  0  0  0  0  0  0  0
   -1.8776    0.3331    0.4684 C   0  0  2  0  0  0  0  0  0  0  0  0
   -2.6551   -0.6782   -0.4559 C   0  0  0  0  0  0  0  0  0  0  0  0
   -2.5614    1.7306    0.5533 C   0  0  0  0  0  0  0  0  0  0  0  0
   -0.3869    0.4280    0.1273 C   0  0  0  0  0  0  0  0  0  0  0  0
   -2.1231   -2.1213   -0.3124 C   0  0  0  0  0  0  0  0  0  0  0  0
   -2.5890   -0.3002   -1.9484 C   0  0  0  0  0  0  0  0  0  0  0  0
   -4.1236   -0.7168   -0.0362 C   0  0  0  0  0  0  0  0  0  0  0  0
    0.5232   -0.4454    0.7476 C   0  0  0  0  0  0  0  0  0  0  0  0
   -1.9491    2.6393    1.6171 C   0  0  0  0  0  0  0  0  0  0  0  0
    0.1155    1.3606   -0.7903 C   0  0  0  0  0  0  0  0  0  0  0  0
    1.9005   -0.3997    0.4649 C   0  0  0  0  0  0  0  0  0  0  0  0
    2.3865    0.5652   -0.4451 C   0  0  0  0  0  0  0  0  0  0  0  0
    1.4832    1.4386   -1.0622 C   0  0  0  0  0  0  0  0  0  0  0  0
    2.8027   -1.2922    1.0655 C   0  0  0  0  0  0  0  0  0  0  0  0
    3.7631    0.6278   -0.7199 C   0  0  0  0  0  0  0  0  0  0  0  0
    4.1662   -1.2267    0.7775 C   0  0  0  0  0  0  0  0  0  0  0  0
    4.6360   -0.2668   -0.1077 C   0  0  0  0  0  0  0  0  0  0  0  0
   -3.5699   -1.3432    1.7698 H   0  0  0  0  0  0  0  0  0  0  0  0
    6.3266    0.4027   -0.9495 H   0  0  0  0  0  0  0  0  0  0  0  0
   -1.9305   -0.0806    1.4537 H   0  0  0  0  0  0  0  0  0  0  0  0
   -3.5968    1.5886    0.7830 H   0  0  0  0  0  0  0  0  0  0  0  0
   -2.4203    2.2104   -0.3927 H   0  0  0  0  0  0  0  0  0  0  0  0
   -1.0917   -2.1510   -0.5956 H   0  0  0  0  0  0  0  0  0  0  0  0
   -2.6862   -2.7738   -0.9466 H   0  0  0  0  0  0  0  0  0  0  0  0
   -2.2230   -2.4388    0.7046 H   0  0  0  0  0  0  0  0  0  0  0  0
   -1.5668   -0.2676   -2.2631 H   0  0  0  0  0  0  0  0  0  0  0  0
   -3.0376    0.6604   -2.0932 H   0  0  0  0  0  0  0  0  0  0  0  0
   -3.1166   -1.0309   -2.5251 H   0  0  0  0  0  0  0  0  0  0  0  0
    0.1721   -1.1377    1.4276 H   0  0  0  0  0  0  0  0  0  0  0  0
   -2.0708    2.1919    2.5814 H   0  0  0  0  0  0  0  0  0  0  0  0
   -2.4406    3.5896    1.6003 H   0  0  0  0  0  0  0  0  0  0  0  0
   -0.9069    2.7732    1.4149 H   0  0  0  0  0  0  0  0  0  0  0  0
   -0.5355    1.9998   -1.2728 H   0  0  0  0  0  0  0  0  0  0  0  0
    1.8318    2.1482   -1.7256 H   0  0  0  0  0  0  0  0  0  0  0  0
    2.4538   -2.0036    1.7267 H   0  0  0  0  0  0  0  0  0  0  0  0
    4.1268    1.3370   -1.3754 H   0  0  0  0  0  0  0  0  0  0  0  0
    4.8221   -1.8888    1.2205 H   0  0  0  0  0  0  0  0  0  0  0  0
  1 10  1  0  0  0  0
  1 21  1  0  0  0  0
  2 10  2  0  0  0  0
  3 20  1  0  0  0  0
  3 22  1  0  0  0  0
  4  5  1  0  0  0  0
  4  6  1  0  0  0  0
  4  7  1  0  0  0  0
  4 23  1  1  0  0  0
  5  8  1  0  0  0  0
  5  9  1  0  0  0  0
  5 10  1  0  0  0  0
  6 12  1  0  0  0  0
  6 24  1  0  0  0  0
  6 25  1  0  0  0  0
  7 11  2  0  0  0  0
  7 13  1  0  0  0  0
  8 26  1  0  0  0  0
  8 27  1  0  0  0  0
  8 28  1  0  0  0  0
  9 29  1  0  0  0  0
  9 30  1  0  0  0  0
  9 31  1  0  0  0  0
 11 14  1  0  0  0  0
 11 32  1  0  0  0  0
 12 33  1  0  0  0  0
 12 34  1  0  0  0  0
 12 35  1  0  0  0  0
 13 16  2  0  0  0  0
 13 36  1  0  0  0  0
 14 15  2  0  0  0  0
 14 17  1  0  0  0  0
 15 16  1  0  0  0  0
 15 18  1  0  0  0  0
 16 37  1  0  0  0  0
 17 19  2  0  0  0  0
 17 38  1  0  0  0  0
 18 20  2  0  0  0  0
 18 39  1  0  0  0  0
 19 20  1  0  0  0  0
 19 40  1  0  0  0  0
M  END
>  <PUBCHEM_COMPOUND_CID>
254232

>  <PUBCHEM_CONFORMER_RMSD>
0.6

>  <PUBCHEM_CONFORMER_DIVERSEORDER>
1
5
9
8
4
6
2
7
3

>  <PUBCHEM_MMFF94_PARTIAL_CHARGES>
22
1 -0.65
10 0.66
11 -0.15
13 -0.15
16 -0.15
17 -0.15
18 -0.15
19 -0.15
2 -0.57
20 0.08
3 -0.53
30 0.15
34 0.15
35 0.15
36 0.15
37 0.5
38 0.15
39 0.15
4 0.14
40 0.45
5 0.06
7 -0.14

>  <PUBCHEM_EFFECTIVE_ROTOR_COUNT>
4

>  <PUBCHEM_PHARMACOPHORE_FEATURES>
8
1 1 acceptor
1 12 hydrophobe
1 2 acceptor
1 3 donor
3 1 2 10 anion
3 5 8 9 hydrophobe
6 14 15 17 18 19 20 rings
6 7 11 13 14 15 16 rings

>  <PUBCHEM_HEAVY_ATOM_COUNT>
20

>  <PUBCHEM_ATOM_DEF_STEREO_COUNT>
0

>  <PUBCHEM_ATOM_UDEF_STEREO_COUNT>
1

>  <PUBCHEM_BOND_DEF_STEREO_COUNT>
0

>  <PUBCHEM_BOND_UDEF_STEREO_COUNT>
0

>  <PUBCHEM_ISOTOPIC_ATOM_COUNT>
0

>  <PUBCHEM_COMPONENT_COUNT>
1

>  <PUBCHEM_CACTVS_TAUTO_COUNT>
3

>  <PUBCHEM_CONFORMER_ID>
0003E11800000001

>  <PUBCHEM_MMFF94_ENERGY>
62.1542

>  <PUBCHEM_FEATURE_SELFOVERLAP>
40.681

>  <PUBCHEM_SHAPE_FINGERPRINT>
10366900 7 17632571664934714362
11045515 52 17603302670094125477
11315181 36 18335141999124624184
11578080 2 18265307608413013157
12107183 9 17619916058908468480
12236239 1 18409731750712759868
12553582 1 18272642480783197251
12633257 1 16343705473449568163
12670546 56 18272931630803182032
12714826 92 17704069577547160921
12788726 201 18200887231057891673
128620 24 17894627067533943054
13288520 33 18272653437360534710
13581323 91 17989205932220459013
13583140 156 16629382663632383602
14289901 80 17418087715980996384
14576447 43 18260263079561350042
15238133 3 14476697337305417379
15375358 24 13902196988548760751
15653759 3 16630806599582737120
16752209 62 18270387318373817361
16945 1 18130780170462703495
17349148 13 17749384884592975736
19433438 38 16877933941080144150
19862831 5 18041272235843676719
200 152 18335136505560590313
20281475 54 18263077726449435418
20600515 1 16916799538508004297
20645477 70 16878214261238329226
21033648 29 15553873383132884802
21267235 1 18261402147827307786
221490 88 17605848129279173026
22646028 28 18334292063260866954
2297311 6 17846787303560944552
23402539 116 18131630080430205949
23402655 69 17894906313443576918
23557571 272 17561370556374686624
23559900 14 18270391814951752176
23598288 3 18202284731917133277
2871803 45 17821725010148508826
312423 11 18338251413449542604
34797466 226 17489035954732807676
5104073 3 18336261233337046432
602551 16 17275097366776018814

>  <PUBCHEM_SHAPE_MULTIPOLES>
393.98
9.8
1.92
1.31
5.11
0.68
-0.12
-3.04
-0.43
-1.24
0.55
-0.63
0.2
-1.23

>  <PUBCHEM_SHAPE_SELFOVERLAP>
841.413

>  <PUBCHEM_SHAPE_VOLUME>
220

>  <PUBCHEM_COORDINATE_TYPE>
2
5
10

>  <Energy>
14.085

$$$$
