5945
 OpenBabel09212612393D

 41 42  0  0  0  0  0  0  0  0999 V2000
   -1.5620   -1.9320    0.0122 Si  0  0  0  0  0  0  0  0  0  0  0  0
    1.5872   -1.8987   -0.1582 Si  0  0  0  0  0  0  0  0  0  0  0  0
   -0.0097   -2.1926   -0.5343 O   0  0  0  0  0  0  0  0  0  0  0  0
   -1.7963   -0.0508    0.0790 C   0  0  0  0  0  0  0  0  0  0  0  0
    1.7954   -0.0134   -0.1206 C   0  0  0  0  0  0  0  0  0  0  0  0
   -1.8586   -2.6748    1.7046 C   0  0  0  0  0  0  0  0  0  0  0  0
   -2.8229   -2.6428   -1.1852 C   0  0  0  0  0  0  0  0  0  0  0  0
    2.0757   -2.6385    1.4906 C   0  0  0  0  0  0  0  0  0  0  0  0
    2.7258   -2.5808   -1.4836 C   0  0  0  0  0  0  0  0  0  0  0  0
   -1.5118    0.6692    1.2526 C   0  0  0  0  0  0  0  0  0  0  0  0
    2.2426    0.6470    1.0379 C   0  0  0  0  0  0  0  0  0  0  0  0
   -2.2317    0.6561   -1.0550 C   0  0  0  0  0  0  0  0  0  0  0  0
    1.4829    0.7542   -1.2548 C   0  0  0  0  0  0  0  0  0  0  0  0
   -1.6628    2.0549    1.2878 C   0  0  0  0  0  0  0  0  0  0  0  0
    2.3705    2.0347    1.0561 C   0  0  0  0  0  0  0  0  0  0  0  0
   -2.3839    2.0434   -1.0124 C   0  0  0  0  0  0  0  0  0  0  0  0
    1.6126    2.1436   -1.2303 C   0  0  0  0  0  0  0  0  0  0  0  0
   -2.1012    2.7407    0.1575 C   0  0  0  0  0  0  0  0  0  0  0  0
    2.0557    2.7817   -0.0741 C   0  0  0  0  0  0  0  0  0  0  0  0
   -1.1464   -2.2783    2.3979 H   0  0  0  0  0  0  0  0  0  0  0  0
   -1.7507   -3.7380    1.6514 H   0  0  0  0  0  0  0  0  0  0  0  0
   -2.8480   -2.4326    2.0320 H   0  0  0  0  0  0  0  0  0  0  0  0
   -2.6651   -2.2264   -2.1581 H   0  0  0  0  0  0  0  0  0  0  0  0
   -3.8096   -2.4007   -0.8494 H   0  0  0  0  0  0  0  0  0  0  0  0
   -2.7123   -3.7061   -1.2300 H   0  0  0  0  0  0  0  0  0  0  0  0
    1.4335   -2.2575    2.2569 H   0  0  0  0  0  0  0  0  0  0  0  0
    3.0894   -2.3774    1.7124 H   0  0  0  0  0  0  0  0  0  0  0  0
    1.9836   -3.7036    1.4449 H   0  0  0  0  0  0  0  0  0  0  0  0
    2.4574   -2.1657   -2.4325 H   0  0  0  0  0  0  0  0  0  0  0  0
    2.6318   -3.6460   -1.5208 H   0  0  0  0  0  0  0  0  0  0  0  0
    3.7376   -2.3198   -1.2534 H   0  0  0  0  0  0  0  0  0  0  0  0
   -1.1885    0.1681    2.0949 H   0  0  0  0  0  0  0  0  0  0  0  0
    2.4778    0.0999    1.8807 H   0  0  0  0  0  0  0  0  0  0  0  0
   -2.4407    0.1452   -1.9269 H   0  0  0  0  0  0  0  0  0  0  0  0
    1.1544    0.2864   -2.1140 H   0  0  0  0  0  0  0  0  0  0  0  0
   -1.4490    2.5739    2.1538 H   0  0  0  0  0  0  0  0  0  0  0  0
    2.6999    2.5096    1.9111 H   0  0  0  0  0  0  0  0  0  0  0  0
   -2.7067    2.5522   -1.8502 H   0  0  0  0  0  0  0  0  0  0  0  0
    1.3801    2.6983   -2.0690 H   0  0  0  0  0  0  0  0  0  0  0  0
   -2.2163    3.7658    0.1880 H   0  0  0  0  0  0  0  0  0  0  0  0
    2.1504    3.8091   -0.0560 H   0  0  0  0  0  0  0  0  0  0  0  0
  1  3  1  0  0  0  0
  1  4  1  0  0  0  0
  1  6  1  0  0  0  0
  1  7  1  0  0  0  0
  2  3  1  0  0  0  0
  2  5  1  0  0  0  0
  2  8  1  0  0  0  0
  2  9  1  0  0  0  0
  4 10  2  0  0  0  0
  4 12  1  0  0  0  0
  5 11  2  0  0  0  0
  5 13  1  0  0  0  0
  6 20  1  0  0  0  0
  6 21  1  0  0  0  0
  6 22  1  0  0  0  0
  7 23  1  0  0  0  0
  7 24  1  0  0  0  0
  7 25  1  0  0  0  0
  8 26  1  0  0  0  0
  8 27  1  0  0  0  0
  8 28  1  0  0  0  0
  9 29  1  0  0  0  0
  9 30  1  0  0  0  0
  9 31  1  0  0  0  0
 10 14  1  0  0  0  0
 10 32  1  0  0  0  0
 11 15  1  0  0  0  0
 11 33  1  0  0  0  0
 12 16  2  0  0  0  0
 12 34  1  0  0  0  0
 13 17  2  0  0  0  0
 13 35  1  0  0  0  0
 14 18  2  0  0  0  0
 14 36  1  0  0  0  0
 15 19  2  0  0  0  0
 15 37  1  0  0  0  0
 16 18  1  0  0  0  0
 16 38  1  0  0  0  0
 17 19  1  0  0  0  0
 17 39  1  0  0  0  0
 18 40  1  0  0  0  0
 19 41  1  0  0  0  0
M  END
>  <PUBCHEM_COMPOUND_CID>
5945

>  <PUBCHEM_CONFORMER_RMSD>
0.6

>  <PUBCHEM_CONFORMER_DIVERSEORDER>
2
7
11
15
17
9
8
4
1
6
10
5
13
3
12
16
14

>  <PUBCHEM_MMFF94_PARTIAL_CHARGES>
29
1 0.68
10 -0.15
11 -0.15
12 -0.15
13 -0.15
14 -0.15
15 -0.15
16 -0.15
17 -0.15
18 -0.15
19 -0.15
2 0.68
3 -0.59
32 0.15
33 0.15
34 0.15
35 0.15
36 0.15
37 0.15
38 0.15
39 0.15
4 -0.22
40 0.15
41 0.15
5 -0.22
6 -0.08
7 -0.08
8 -0.08
9 -0.08

>  <PUBCHEM_EFFECTIVE_ROTOR_COUNT>
4

>  <PUBCHEM_PHARMACOPHORE_FEATURES>
2
6 4 10 12 14 16 18 rings
6 5 11 13 15 17 19 rings

>  <PUBCHEM_HEAVY_ATOM_COUNT>
19

>  <PUBCHEM_ATOM_DEF_STEREO_COUNT>
0

>  <PUBCHEM_ATOM_UDEF_STEREO_COUNT>
0

>  <PUBCHEM_BOND_DEF_STEREO_COUNT>
0

>  <PUBCHEM_BOND_UDEF_STEREO_COUNT>
0

>  <PUBCHEM_ISOTOPIC_ATOM_COUNT>
0

>  <PUBCHEM_COMPONENT_COUNT>
1

>  <PUBCHEM_CACTVS_TAUTO_COUNT>
1

>  <PUBCHEM_CONFORMER_ID>
0000173900000002

>  <PUBCHEM_MMFF94_ENERGY>
31.1936

>  <PUBCHEM_FEATURE_SELFOVERLAP>
10.149

>  <PUBCHEM_SHAPE_FINGERPRINT>
12156800 1 15824014808321573599
12654903 92 18122622751872596409
128993 33 18266486293477700056
13132413 78 18339089181533462606
13140716 1 18265057027145469163
13544592 271 17904194081437383531
1420 336 18268706117407507711
14223421 5 18338802315776891126
14251751 93 18190762966944573668
14251757 17 17841189677559213396
14713325 29 16960185266976246924
16945 1 18410851062092206703
18219364 16 17829621556482647401
20600515 1 17976815381632971438
20715895 44 17972845221349209719
20905425 154 18341887549657232678
2334 1 17906177600054675647
23402539 116 17481143827260283044
23419403 2 16827200266797806379
23558518 356 18408599275432494171
238 59 18118960291979343309
2748010 2 18267026042038601570
2818148 4 17977709464341970478
3060560 45 17762880084032412461
350125 39 18339658792300716759
484985 159 15396349650556302613
589210 1 18410853261141972447
70251023 43 18341906215770568327
81228 2 18335990869292978217

>  <PUBCHEM_SHAPE_MULTIPOLES>
421.57
4.49
4.45
1.63
0.04
0.08
0.17
0.17
-0.39
0
0.1
-0.05
0.39
0.17

>  <PUBCHEM_SHAPE_SELFOVERLAP>
842.349

>  <PUBCHEM_SHAPE_VOLUME>
249.3

>  <PUBCHEM_COORDINATE_TYPE>
2
5
10

>  <Energy>
31.21

$$$$
