5284649
 OpenBabel09212612393D

 30 32  0  0  0  0  0  0  0  0999 V2000
    1.0373    2.0184   -0.0105 O   0  0  0  0  0  0  0  0  0  0  0  0
   -0.1776   -1.8780   -0.0650 O   0  0  0  0  0  0  0  0  0  0  0  0
    4.9253   -1.8999    0.0201 O   0  0  0  0  0  0  0  0  0  0  0  0
    5.5930    0.7270    0.0391 O   0  0  0  0  0  0  0  0  0  0  0  0
   -6.3466   -0.3966    0.0689 O   0  0  0  0  0  0  0  0  0  0  0  0
    1.6031   -0.3461   -0.0164 C   0  0  0  0  0  0  0  0  0  0  0  0
   -0.7897    0.4245   -0.0188 C   0  0  0  0  0  0  0  0  0  0  0  0
    1.9626    1.0046   -0.0054 C   0  0  0  0  0  0  0  0  0  0  0  0
    0.1740   -0.7049   -0.0358 C   0  0  0  0  0  0  0  0  0  0  0  0
   -2.2385    0.2038   -0.0089 C   0  0  0  0  0  0  0  0  0  0  0  0
    2.5810   -1.3495   -0.0091 C   0  0  0  0  0  0  0  0  0  0  0  0
   -0.2924    1.6698   -0.0085 C   0  0  0  0  0  0  0  0  0  0  0  0
    3.3081    1.3699    0.0121 C   0  0  0  0  0  0  0  0  0  0  0  0
    3.9179   -0.9759    0.0100 C   0  0  0  0  0  0  0  0  0  0  0  0
    4.2744    0.3728    0.0201 C   0  0  0  0  0  0  0  0  0  0  0  0
   -2.9511    0.1236   -1.2133 C   0  0  0  0  0  0  0  0  0  0  0  0
   -2.9251    0.0833    1.2063 C   0  0  0  0  0  0  0  0  0  0  0  0
   -4.3339   -0.0788   -1.2036 C   0  0  0  0  0  0  0  0  0  0  0  0
   -4.3066   -0.1180    1.2152 C   0  0  0  0  0  0  0  0  0  0  0  0
   -4.9991   -0.1976    0.0127 C   0  0  0  0  0  0  0  0  0  0  0  0
    4.7222   -2.8146    0.0138 H   0  0  0  0  0  0  0  0  0  0  0  0
    5.8348    1.6323    0.0459 H   0  0  0  0  0  0  0  0  0  0  0  0
   -6.8450   -0.4552   -0.7225 H   0  0  0  0  0  0  0  0  0  0  0  0
    2.3129   -2.3460   -0.0177 H   0  0  0  0  0  0  0  0  0  0  0  0
   -0.9756    2.4431    0.0019 H   0  0  0  0  0  0  0  0  0  0  0  0
    3.5813    2.3651    0.0191 H   0  0  0  0  0  0  0  0  0  0  0  0
   -2.4520    0.2146   -2.1120 H   0  0  0  0  0  0  0  0  0  0  0  0
   -2.4082    0.1434    2.0975 H   0  0  0  0  0  0  0  0  0  0  0  0
   -4.8572   -0.1397   -2.0910 H   0  0  0  0  0  0  0  0  0  0  0  0
   -4.8115   -0.2073    2.1108 H   0  0  0  0  0  0  0  0  0  0  0  0
  1  8  1  0  0  0  0
  1 12  1  0  0  0  0
  2  9  2  0  0  0  0
  3 14  1  0  0  0  0
  3 21  1  0  0  0  0
  4 15  1  0  0  0  0
  4 22  1  0  0  0  0
  5 20  1  0  0  0  0
  5 23  1  0  0  0  0
  6  8  1  0  0  0  0
  6  9  1  0  0  0  0
  6 11  2  0  0  0  0
  7  9  1  0  0  0  0
  7 10  1  0  0  0  0
  7 12  2  0  0  0  0
  8 13  2  0  0  0  0
 10 16  2  0  0  0  0
 10 17  1  0  0  0  0
 11 14  1  0  0  0  0
 11 24  1  0  0  0  0
 12 25  1  0  0  0  0
 13 15  1  0  0  0  0
 13 26  1  0  0  0  0
 14 15  2  0  0  0  0
 16 18  1  0  0  0  0
 16 27  1  0  0  0  0
 17 19  2  0  0  0  0
 17 28  1  0  0  0  0
 18 20  2  0  0  0  0
 18 29  1  0  0  0  0
 19 20  1  0  0  0  0
 19 30  1  0  0  0  0
M  END
>  <PUBCHEM_COMPOUND_CID>
5284649

>  <PUBCHEM_CONFORMER_RMSD>
0.6

>  <PUBCHEM_CONFORMER_DIVERSEORDER>
1
2

>  <PUBCHEM_MMFF94_PARTIAL_CHARGES>
30
1 -0.16
10 0.03
11 -0.15
12 -0.07
13 -0.15
14 0.08
15 0.08
16 -0.15
17 -0.15
18 -0.15
19 -0.15
2 -0.57
20 0.08
21 0.15
22 0.15
23 0.15
24 0.15
25 0.15
26 0.15
27 0.15
28 0.45
29 0.45
3 -0.53
30 0.45
4 -0.53
5 -0.53
6 0.09
7 -0.01
8 0.08
9 0.47

>  <PUBCHEM_EFFECTIVE_ROTOR_COUNT>
1

>  <PUBCHEM_PHARMACOPHORE_FEATURES>
8
1 1 acceptor
1 2 acceptor
1 3 donor
1 4 donor
1 5 donor
6 1 6 7 8 9 12 rings
6 10 16 17 18 19 20 rings
6 6 8 11 13 14 15 rings

>  <PUBCHEM_HEAVY_ATOM_COUNT>
20

>  <PUBCHEM_ATOM_DEF_STEREO_COUNT>
0

>  <PUBCHEM_ATOM_UDEF_STEREO_COUNT>
0

>  <PUBCHEM_BOND_DEF_STEREO_COUNT>
0

>  <PUBCHEM_BOND_UDEF_STEREO_COUNT>
0

>  <PUBCHEM_ISOTOPIC_ATOM_COUNT>
0

>  <PUBCHEM_COMPONENT_COUNT>
1

>  <PUBCHEM_CACTVS_TAUTO_COUNT>
20

>  <PUBCHEM_CONFORMER_ID>
0050A32900000001

>  <PUBCHEM_MMFF94_ENERGY>
59.745

>  <PUBCHEM_FEATURE_SELFOVERLAP>
40.629

>  <PUBCHEM_SHAPE_FINGERPRINT>
10 15 18040989709666056944
11287383 113 17022906778264056108
11471102 20 18409448094298773284
11796584 16 16660363683787122859
12107183 9 17268369222975858099
12236239 1 17846780706949886481
13140716 1 18122905588871203640
13533116 47 17989487394613331402
13760787 5 18412825780759950500
13862211 1 18410571747874923298
14386348 63 17894915135380164857
14573314 32 17023180500835262399
15196674 1 18338797819035835468
15788980 27 18334855009135417111
15848702 151 17916873421573564903
15961568 22 15792301530381268796
17349148 13 18202003226490308347
17862501 102 17775566433634646873
1813 80 18270977759933294708
19489759 90 16226044487993270765
200 152 18343862212901558993
20028762 73 18202841045766917391
20645477 70 18335981982800336558
21033648 29 18114727304992589709
21033650 10 16342048475008625912
21267235 1 18339928121938277814
21641784 216 18114761347278288756
21682296 61 18268154154170794894
23175994 123 18113622291944165693
23184049 59 18413394236919395974
23402539 116 18060698381566309757
23557571 272 16950557770900894861
23559900 14 17095246925257301258
26918003 58 18187367648861885545
2871803 45 18186519869704557664
335352 9 18411140269144245684
345986 75 18059286540280571482
34797466 226 16298398958407530150
34934 24 18339918329322879742
3545911 37 18408604786318620646
4340502 62 16805320002975142050
465052 167 18411986861914919790
5104073 3 18339355246083327640
542803 24 17346881147947823043
602551 16 15195271071263071541
7495541 125 17168152285820888645

>  <PUBCHEM_SHAPE_MULTIPOLES>
382.24
12.05
1.57
0.91
3.77
0
0.01
1.98
0.19
-1.83
-0.01
1.14
0
0.03

>  <PUBCHEM_SHAPE_SELFOVERLAP>
855.676

>  <PUBCHEM_SHAPE_VOLUME>
202

>  <PUBCHEM_COORDINATE_TYPE>
2
5
10

>  <Energy>
37.1855

$$$$
