75575
 OpenBabel09212612403D

 27 28  0  0  0  0  0  0  0  0999 V2000
    1.5566    2.2562   -0.5500 O   0  0  0  0  0  0  0  0  0  0  0  0
   -1.5531   -2.2586   -0.5502 O   0  0  0  0  0  0  0  0  0  0  0  0
    0.0007   -0.0004   -1.4096 C   0  0  0  0  0  0  0  0  0  0  0  0
    1.2641   -0.1122   -0.5853 C   0  0  0  0  0  0  0  0  0  0  0  0
   -1.2623    0.1099   -0.5849 C   0  0  0  0  0  0  0  0  0  0  0  0
    1.9881    1.0136   -0.1765 C   0  0  0  0  0  0  0  0  0  0  0  0
   -1.9851   -1.0164   -0.1760 C   0  0  0  0  0  0  0  0  0  0  0  0
    1.7240   -1.3793   -0.1906 C   0  0  0  0  0  0  0  0  0  0  0  0
   -1.7231    1.3765   -0.1899 C   0  0  0  0  0  0  0  0  0  0  0  0
    3.1429    0.8856    0.5976 C   0  0  0  0  0  0  0  0  0  0  0  0
   -3.1396   -0.8892    0.5990 C   0  0  0  0  0  0  0  0  0  0  0  0
    2.8788   -1.5137    0.5810 C   0  0  0  0  0  0  0  0  0  0  0  0
   -2.8781    1.5100    0.5822 C   0  0  0  0  0  0  0  0  0  0  0  0
    3.5878   -0.3815    0.9744 C   0  0  0  0  0  0  0  0  0  0  0  0
   -3.5859    0.3771    0.9761 C   0  0  0  0  0  0  0  0  0  0  0  0
    0.7820    2.3466   -1.0695 H   0  0  0  0  0  0  0  0  0  0  0  0
   -0.7788   -2.3483   -1.0703 H   0  0  0  0  0  0  0  0  0  0  0  0
   -0.0758   -0.8701   -2.0281 H   0  0  0  0  0  0  0  0  0  0  0  0
    0.0800    0.9027   -1.9779 H   0  0  0  0  0  0  0  0  0  0  0  0
    1.2008   -2.2222   -0.4751 H   0  0  0  0  0  0  0  0  0  0  0  0
   -1.2008    2.2199   -0.4744 H   0  0  0  0  0  0  0  0  0  0  0  0
    3.6658    1.7259    0.8901 H   0  0  0  0  0  0  0  0  0  0  0  0
   -3.6613   -1.7301    0.8919 H   0  0  0  0  0  0  0  0  0  0  0  0
    3.2073   -2.4515    0.8599 H   0  0  0  0  0  0  0  0  0  0  0  0
   -3.2073    2.4475    0.8612 H   0  0  0  0  0  0  0  0  0  0  0  0
    4.4423   -0.4799    1.5447 H   0  0  0  0  0  0  0  0  0  0  0  0
   -4.4403    0.4746    1.5467 H   0  0  0  0  0  0  0  0  0  0  0  0
  1  6  1  0  0  0  0
  1 16  1  0  0  0  0
  2  7  1  0  0  0  0
  2 17  1  0  0  0  0
  3  4  1  0  0  0  0
  3  5  1  0  0  0  0
  3 18  1  0  0  0  0
  3 19  1  0  0  0  0
  4  6  1  0  0  0  0
  4  8  2  0  0  0  0
  5  7  1  0  0  0  0
  5  9  2  0  0  0  0
  6 10  2  0  0  0  0
  7 11  2  0  0  0  0
  8 12  1  0  0  0  0
  8 20  1  0  0  0  0
  9 13  1  0  0  0  0
  9 21  1  0  0  0  0
 10 14  1  0  0  0  0
 10 22  1  0  0  0  0
 11 15  1  0  0  0  0
 11 23  1  0  0  0  0
 12 14  2  0  0  0  0
 12 24  1  0  0  0  0
 13 15  2  0  0  0  0
 13 25  1  0  0  0  0
 14 26  1  0  0  0  0
 15 27  1  0  0  0  0
M  END
>  <PUBCHEM_COMPOUND_CID>
75575

>  <PUBCHEM_CONFORMER_RMSD>
0.6

>  <PUBCHEM_CONFORMER_DIVERSEORDER>
2
11
3
9
8
7
1
10
4
6
5

>  <PUBCHEM_MMFF94_PARTIAL_CHARGES>
25
1 -0.53
10 -0.15
11 -0.15
12 -0.15
13 -0.15
14 -0.15
15 -0.15
18 0.15
19 0.15
2 -0.53
20 0.15
21 0.15
22 0.15
23 0.15
24 0.15
25 0.15
26 0.45
27 0.45
3 0.29
4 -0.14
5 -0.14
6 0.08
7 0.08
8 -0.15
9 -0.15

>  <PUBCHEM_EFFECTIVE_ROTOR_COUNT>
2

>  <PUBCHEM_PHARMACOPHORE_FEATURES>
4
1 1 donor
1 2 donor
6 4 6 8 10 12 14 rings
6 5 7 9 11 13 15 rings

>  <PUBCHEM_HEAVY_ATOM_COUNT>
15

>  <PUBCHEM_ATOM_DEF_STEREO_COUNT>
0

>  <PUBCHEM_ATOM_UDEF_STEREO_COUNT>
0

>  <PUBCHEM_BOND_DEF_STEREO_COUNT>
0

>  <PUBCHEM_BOND_UDEF_STEREO_COUNT>
0

>  <PUBCHEM_ISOTOPIC_ATOM_COUNT>
0

>  <PUBCHEM_COMPONENT_COUNT>
1

>  <PUBCHEM_CACTVS_TAUTO_COUNT>
5

>  <PUBCHEM_CONFORMER_ID>
0001273700000002

>  <PUBCHEM_MMFF94_ENERGY>
40.0313

>  <PUBCHEM_FEATURE_SELFOVERLAP>
20.297

>  <PUBCHEM_SHAPE_FINGERPRINT>
10799339 124 18410573950791713128
1100329 8 16321186684727197718
11471102 22 18334575741866855176
12077114 3 18337666400164634773
12202030 40 15502644971499285314
12251169 10 18410856572524691469
12382932 28 18341611494939539048
12696612 119 18409168826719118052
13296908 3 15647048291529529966
13299463 15 8069733122449010228
13581323 91 18261115166443761899
13693222 15 18335139821190972873
13764800 53 16845583040621036867
14144814 61 18410575076073144360
14787075 74 16753812590065404583
15209289 33 17749673987210357210
15375462 189 17823131242533968490
15653759 3 18260831449325467224
15775835 57 17846215596142729264
16945 1 18410575106137915740
17804303 29 18193005824035111007
1813 80 17386573440960684582
200 152 18271226314423239063
20361792 2 15791735204309037135
20442098 301 18410853282738245170
20525323 117 18059569239138273103
20528008 55 18413101767084844407
20559304 39 18408893957344190236
20871999 31 9294992541405002673
21501502 16 18338799025736685087
22445834 79 18334575762935665475
23402539 116 18130775768806826365
23463225 33 18408887347215415797
25 1 11671790398469899660
2748010 2 18050568434831327765
4280585 95 7851371247799405512
69090 78 18412538787246110543
7097593 13 18409163290480042666
81228 2 15408620410585431471

>  <PUBCHEM_SHAPE_MULTIPOLES>
296.95
6.23
1.96
1.04
0.01
0
0.05
0
-2.65
0
0.12
0
0
-0.36

>  <PUBCHEM_SHAPE_SELFOVERLAP>
643.187

>  <PUBCHEM_SHAPE_VOLUME>
162

>  <PUBCHEM_COORDINATE_TYPE>
2
5
10

>  <Energy>
26.1643

$$$$
