21629892
 OpenBabel09212612393D

 45 46  0  0  1  0  0  0  0  0999 V2000
   -5.6893    0.3321    0.2121 O   0  0  0  0  0  0  0  0  0  0  0  0
    6.3209   -0.3599   -0.0008 O   0  0  0  0  0  0  0  0  0  0  0  0
   -0.0817   -0.6859    0.2547 C   0  0  2  0  0  0  0  0  0  0  0  0
    0.7253    0.5868   -0.1976 C   0  0  1  0  0  0  0  0  0  0  0  0
    0.2612   -1.9357   -0.6029 C   0  0  0  0  0  0  0  0  0  0  0  0
    0.3448    1.8505    0.6252 C   0  0  0  0  0  0  0  0  0  0  0  0
   -1.5803   -0.4259    0.2187 C   0  0  0  0  0  0  0  0  0  0  0  0
    2.2274    0.3394   -0.1257 C   0  0  0  0  0  0  0  0  0  0  0  0
   -0.4235   -3.2115   -0.1181 C   0  0  0  0  0  0  0  0  0  0  0  0
    1.0229    3.1261    0.1352 C   0  0  0  0  0  0  0  0  0  0  0  0
   -2.3468   -0.4972    1.3911 C   0  0  0  0  0  0  0  0  0  0  0  0
   -2.2138   -0.0952   -0.9831 C   0  0  0  0  0  0  0  0  0  0  0  0
    3.0064    0.4070   -1.2908 C   0  0  0  0  0  0  0  0  0  0  0  0
    2.8528    0.0327    1.0944 C   0  0  0  0  0  0  0  0  0  0  0  0
   -3.7203   -0.2389    1.3524 C   0  0  0  0  0  0  0  0  0  0  0  0
   -3.5795    0.1636   -1.0185 C   0  0  0  0  0  0  0  0  0  0  0  0
    4.3805    0.1698   -1.2361 C   0  0  0  0  0  0  0  0  0  0  0  0
    4.2246   -0.2052    1.1495 C   0  0  0  0  0  0  0  0  0  0  0  0
   -4.3409    0.0931    0.1476 C   0  0  0  0  0  0  0  0  0  0  0  0
    4.9759   -0.1343   -0.0172 C   0  0  0  0  0  0  0  0  0  0  0  0
   -6.3105    0.6683   -1.0260 C   0  0  0  0  0  0  0  0  0  0  0  0
    6.8143   -0.3086   -0.7958 H   0  0  0  0  0  0  0  0  0  0  0  0
    0.2119   -0.8910    1.2630 H   0  0  0  0  0  0  0  0  0  0  0  0
    0.4564    0.7739   -1.2162 H   0  0  0  0  0  0  0  0  0  0  0  0
    1.3201   -2.0869   -0.5733 H   0  0  0  0  0  0  0  0  0  0  0  0
   -0.0930   -1.7447   -1.5944 H   0  0  0  0  0  0  0  0  0  0  0  0
    0.6266    1.6878    1.6445 H   0  0  0  0  0  0  0  0  0  0  0  0
   -0.7097    1.9926    0.5118 H   0  0  0  0  0  0  0  0  0  0  0  0
   -0.0944   -3.4378    0.8746 H   0  0  0  0  0  0  0  0  0  0  0  0
   -0.1719   -4.0214   -0.7705 H   0  0  0  0  0  0  0  0  0  0  0  0
   -1.4840   -3.0694   -0.1185 H   0  0  0  0  0  0  0  0  0  0  0  0
    2.0838    3.0258    0.2317 H   0  0  0  0  0  0  0  0  0  0  0  0
    0.6883    3.9560    0.7220 H   0  0  0  0  0  0  0  0  0  0  0  0
    0.7723    3.2914   -0.8918 H   0  0  0  0  0  0  0  0  0  0  0  0
   -1.8950   -0.7414    2.2862 H   0  0  0  0  0  0  0  0  0  0  0  0
   -1.6617   -0.0427   -1.8534 H   0  0  0  0  0  0  0  0  0  0  0  0
    2.5605    0.6335   -2.1935 H   0  0  0  0  0  0  0  0  0  0  0  0
    2.2906   -0.0169    1.9584 H   0  0  0  0  0  0  0  0  0  0  0  0
   -4.2778   -0.2941    2.2191 H   0  0  0  0  0  0  0  0  0  0  0  0
   -4.0322    0.4092   -1.9128 H   0  0  0  0  0  0  0  0  0  0  0  0
    4.9509    0.2198   -2.0948 H   0  0  0  0  0  0  0  0  0  0  0  0
    4.6783   -0.4318    2.0483 H   0  0  0  0  0  0  0  0  0  0  0  0
   -7.3556    0.8341   -0.8673 H   0  0  0  0  0  0  0  0  0  0  0  0
   -6.1783   -0.1345   -1.7209 H   0  0  0  0  0  0  0  0  0  0  0  0
   -5.8639    1.5576   -1.4192 H   0  0  0  0  0  0  0  0  0  0  0  0
  1 19  1  0  0  0  0
  1 21  1  0  0  0  0
  2 20  1  0  0  0  0
  2 22  1  0  0  0  0
  3  4  1  0  0  0  0
  3  5  1  0  0  0  0
  3  7  1  0  0  0  0
  3 23  1  1  0  0  0
  4  6  1  0  0  0  0
  4  8  1  0  0  0  0
  4 24  1  6  0  0  0
  5  9  1  0  0  0  0
  5 25  1  0  0  0  0
  5 26  1  0  0  0  0
  6 10  1  0  0  0  0
  6 27  1  0  0  0  0
  6 28  1  0  0  0  0
  7 11  2  0  0  0  0
  7 12  1  0  0  0  0
  8 13  2  0  0  0  0
  8 14  1  0  0  0  0
  9 29  1  0  0  0  0
  9 30  1  0  0  0  0
  9 31  1  0  0  0  0
 10 32  1  0  0  0  0
 10 33  1  0  0  0  0
 10 34  1  0  0  0  0
 11 15  1  0  0  0  0
 11 35  1  0  0  0  0
 12 16  2  0  0  0  0
 12 36  1  0  0  0  0
 13 17  1  0  0  0  0
 13 37  1  0  0  0  0
 14 18  2  0  0  0  0
 14 38  1  0  0  0  0
 15 19  2  0  0  0  0
 15 39  1  0  0  0  0
 16 19  1  0  0  0  0
 16 40  1  0  0  0  0
 17 20  2  0  0  0  0
 17 41  1  0  0  0  0
 18 20  1  0  0  0  0
 18 42  1  0  0  0  0
 21 43  1  0  0  0  0
 21 44  1  0  0  0  0
 21 45  1  0  0  0  0
M  END
>  <PUBCHEM_COMPOUND_CID>
21629892

>  <PUBCHEM_CONFORMER_RMSD>
0.8

>  <PUBCHEM_CONFORMER_DIVERSEORDER>
1
4
2
8
3
5
7
6

>  <PUBCHEM_MMFF94_PARTIAL_CHARGES>
26
1 -0.36
11 -0.15
12 -0.15
13 -0.15
14 -0.15
15 -0.15
16 -0.15
17 -0.15
18 -0.15
19 0.08
2 -0.53
20 0.08
21 0.28
3 0.14
34 0.15
35 0.15
36 0.15
37 0.15
38 0.15
39 0.15
4 0.14
40 0.15
41 0.15
42 0.45
7 -0.14
8 -0.14

>  <PUBCHEM_EFFECTIVE_ROTOR_COUNT>
6

>  <PUBCHEM_PHARMACOPHORE_FEATURES>
7
1 1 acceptor
1 10 hydrophobe
1 2 donor
1 9 hydrophobe
4 3 4 5 6 hydrophobe
6 7 11 12 15 16 19 rings
6 8 13 14 17 18 20 rings

>  <PUBCHEM_HEAVY_ATOM_COUNT>
21

>  <PUBCHEM_ATOM_DEF_STEREO_COUNT>
2

>  <PUBCHEM_ATOM_UDEF_STEREO_COUNT>
0

>  <PUBCHEM_BOND_DEF_STEREO_COUNT>
0

>  <PUBCHEM_BOND_UDEF_STEREO_COUNT>
0

>  <PUBCHEM_ISOTOPIC_ATOM_COUNT>
0

>  <PUBCHEM_COMPONENT_COUNT>
1

>  <PUBCHEM_CACTVS_TAUTO_COUNT>
2

>  <PUBCHEM_CONFORMER_ID>
014A0BC400000001

>  <PUBCHEM_MMFF94_ENERGY>
62.9102

>  <PUBCHEM_FEATURE_SELFOVERLAP>
35.522

>  <PUBCHEM_SHAPE_FINGERPRINT>
10366900 7 18259420828237922341
10906281 52 18189351095198683977
11370993 70 15195287521125004212
11646440 116 17988933283834078433
11796584 16 17458349641088139210
12011746 2 18411136922225245338
12107183 9 15795356832318174137
12166972 35 17775000224086352705
12236239 1 17822013120981378666
12467345 10 15647053754801835701
12592029 89 18409728443952354747
12788726 201 18115020797530465904
128620 24 8935006962170855338
13140716 1 18197782308720060762
13533116 47 17917712341094595174
13760787 19 17095243639559964298
14341114 176 16225770705002365677
14466204 15 18339642231181662953
15048467 5 16298387959117318204
15099037 51 18410857680652660215
15848700 24 18131072627876817128
1601671 61 18335984185912740101
16752209 62 18410291368204297104
17349148 13 17845940722377739099
1813 80 18130799949141023284
18186145 218 18271801367341246853
18222031 100 18131073731767769256
192875 21 17846503664137319905
19784866 9 17821726113548863898
200 152 17676207966375055968
20028762 73 17987241225692357983
20600515 1 18201170935470807944
21033648 29 18340468028864973624
21054139 6 18058716014459033711
21285901 2 18059306357302126540
21709351 56 18341321280490280501
23175994 123 18335144188951536996
23402539 116 18130784564393485142
23536379 177 16370724820534792280
23559900 14 15338828790017177610
23569914 2 15868814414048934221
23569943 247 17415299242381865430
266924 87 18124595288844744244
3004659 81 17458623381324394306
3009799 131 18412259532208706032
3060560 45 18343861117473941199
347723 3 18410855447375206872
34934 24 18266179616445318876
3545911 37 16298386859510712476
4072396 5 18336255760894784322
4214541 1 16515405174745880813
5385378 56 18267030466414547251
59755656 215 18340208479812256102
59755656 520 18201711860536705743
7495541 125 17968104182649278801
74978 22 18196373834514751002
77779 3 16298107600832085002
8272917 22 17313099709720389778
9971528 1 17847063293933308440

>  <PUBCHEM_SHAPE_MULTIPOLES>
420.43
12.09
2.06
1.28
2.64
0.17
0.06
-1.23
-1.49
-0.25
-0.01
0.19
-0.01
0.25

>  <PUBCHEM_SHAPE_SELFOVERLAP>
876.006

>  <PUBCHEM_SHAPE_VOLUME>
240

>  <PUBCHEM_COORDINATE_TYPE>
2
5
10

>  <Energy>
48.5366

$$$$
