638278
 OpenBabel09212612393D

 31 32  0  0  0  0  0  0  0  0999 V2000
   -2.4196   -0.9991    2.0827 O   0  0  0  0  0  0  0  0  0  0  0  0
   -5.8494    1.6822    0.1798 O   0  0  0  0  0  0  0  0  0  0  0  0
   -1.1046   -2.3741   -0.7113 O   0  0  0  0  0  0  0  0  0  0  0  0
    6.4328    1.3217    0.3921 O   0  0  0  0  0  0  0  0  0  0  0  0
   -2.3244   -0.4284   -0.2834 C   0  0  0  0  0  0  0  0  0  0  0  0
    2.6644   -0.3521   -0.1968 C   0  0  0  0  0  0  0  0  0  0  0  0
   -2.9310   -0.3805    0.9755 C   0  0  0  0  0  0  0  0  0  0  0  0
   -1.0742   -1.1730   -0.4807 C   0  0  0  0  0  0  0  0  0  0  0  0
   -2.9000    0.2272   -1.3768 C   0  0  0  0  0  0  0  0  0  0  0  0
    1.3622   -1.0030   -0.4123 C   0  0  0  0  0  0  0  0  0  0  0  0
    0.1725   -0.3960   -0.2789 C   0  0  0  0  0  0  0  0  0  0  0  0
   -4.1145    0.3328    1.1502 C   0  0  0  0  0  0  0  0  0  0  0  0
   -4.0877    0.9379   -1.1996 C   0  0  0  0  0  0  0  0  0  0  0  0
   -4.6850    0.9829    0.0582 C   0  0  0  0  0  0  0  0  0  0  0  0
    2.8393    1.0382   -0.2686 C   0  0  0  0  0  0  0  0  0  0  0  0
    3.7872   -1.1547    0.0539 C   0  0  0  0  0  0  0  0  0  0  0  0
    4.0966    1.6153   -0.0680 C   0  0  0  0  0  0  0  0  0  0  0  0
    5.0462   -0.5802    0.2510 C   0  0  0  0  0  0  0  0  0  0  0  0
    5.1910    0.7992    0.1921 C   0  0  0  0  0  0  0  0  0  0  0  0
   -1.6253   -1.4920    2.0190 H   0  0  0  0  0  0  0  0  0  0  0  0
   -6.2799    1.7346    1.0104 H   0  0  0  0  0  0  0  0  0  0  0  0
    6.5618    2.2491    0.3584 H   0  0  0  0  0  0  0  0  0  0  0  0
   -2.4508    0.1858   -2.3050 H   0  0  0  0  0  0  0  0  0  0  0  0
    1.3638   -1.9982   -0.6857 H   0  0  0  0  0  0  0  0  0  0  0  0
    0.1257    0.6062   -0.0372 H   0  0  0  0  0  0  0  0  0  0  0  0
   -4.5636    0.3792    2.0781 H   0  0  0  0  0  0  0  0  0  0  0  0
   -4.5220    1.4281   -1.9972 H   0  0  0  0  0  0  0  0  0  0  0  0
    2.0285    1.6432   -0.4723 H   0  0  0  0  0  0  0  0  0  0  0  0
    3.6826   -2.1806    0.0932 H   0  0  0  0  0  0  0  0  0  0  0  0
    4.2113    2.6400   -0.1129 H   0  0  0  0  0  0  0  0  0  0  0  0
    5.8651   -1.1793    0.4396 H   0  0  0  0  0  0  0  0  0  0  0  0
  1  7  1  0  0  0  0
  1 20  1  0  0  0  0
  2 14  1  0  0  0  0
  2 21  1  0  0  0  0
  3  8  2  0  0  0  0
  4 19  1  0  0  0  0
  4 22  1  0  0  0  0
  5  7  2  0  0  0  0
  5  8  1  0  0  0  0
  5  9  1  0  0  0  0
  6 10  1  0  0  0  0
  6 15  2  0  0  0  0
  6 16  1  0  0  0  0
  7 12  1  0  0  0  0
  8 11  1  0  0  0  0
  9 13  2  0  0  0  0
  9 23  1  0  0  0  0
 10 11  2  0  0  0  0
 10 24  1  0  0  0  0
 11 25  1  0  0  0  0
 12 14  2  0  0  0  0
 12 26  1  0  0  0  0
 13 14  1  0  0  0  0
 13 27  1  0  0  0  0
 15 17  1  0  0  0  0
 15 28  1  0  0  0  0
 16 18  2  0  0  0  0
 16 29  1  0  0  0  0
 17 19  2  0  0  0  0
 17 30  1  0  0  0  0
 18 19  1  0  0  0  0
 18 31  1  0  0  0  0
M  END
>  <PUBCHEM_COMPOUND_CID>
638278

>  <PUBCHEM_CONFORMER_RMSD>
0.6

>  <PUBCHEM_CONFORMER_DIVERSEORDER>
2
17
12
20
8
16
11
1
21
7
3
22
9
4
18
10
15
19
5
6
13
14

>  <PUBCHEM_MMFF94_PARTIAL_CHARGES>
31
1 -0.53
10 -0.18
11 -0.14
12 -0.15
13 -0.15
14 0.08
15 -0.15
16 -0.15
17 -0.15
18 -0.15
19 0.08
2 -0.53
20 0.15
21 0.15
22 0.15
23 0.15
24 0.15
25 0.15
26 0.15
27 0.15
28 0.15
29 0.45
3 -0.57
30 0.45
31 0.45
4 -0.53
5 0.09
6 0.03
7 0.08
8 0.47
9 -0.15

>  <PUBCHEM_EFFECTIVE_ROTOR_COUNT>
3

>  <PUBCHEM_PHARMACOPHORE_FEATURES>
6
1 1 donor
1 2 donor
1 3 acceptor
1 4 donor
6 5 7 9 12 13 14 rings
6 6 15 16 17 18 19 rings

>  <PUBCHEM_HEAVY_ATOM_COUNT>
19

>  <PUBCHEM_ATOM_DEF_STEREO_COUNT>
0

>  <PUBCHEM_ATOM_UDEF_STEREO_COUNT>
0

>  <PUBCHEM_BOND_DEF_STEREO_COUNT>
1

>  <PUBCHEM_BOND_UDEF_STEREO_COUNT>
0

>  <PUBCHEM_ISOTOPIC_ATOM_COUNT>
0

>  <PUBCHEM_COMPONENT_COUNT>
1

>  <PUBCHEM_CACTVS_TAUTO_COUNT>
57

>  <PUBCHEM_CONFORMER_ID>
0009BD4600000002

>  <PUBCHEM_MMFF94_ENERGY>
59.2449

>  <PUBCHEM_FEATURE_SELFOVERLAP>
30.446

>  <PUBCHEM_SHAPE_FINGERPRINT>
10014705 185 18343580771867959366
11089746 13 17417806267043251552
11370993 144 18113900429293190394
12236239 1 17632573833950961511
12507557 5 18341896328517508128
12596602 18 18114183038104273232
13103583 49 12757441497162604541
13167372 99 18271526373185719792
13288520 33 8070031077521145095
13533116 47 17750794350566816594
13551218 46 13695861502466760065
13583140 156 18187930615779093187
13668630 136 8430317948305184896
13675066 3 17967816054826287854
13685833 64 9295278461599057061
1420 369 11025795388296081784
14341114 176 17458346317010149012
14350574 20 9799689307444217702
14576447 43 9583527516737456340
15183329 4 17346609552123887492
15188451 53 16081656694180215347
15348495 7 17676209113020619432
16988056 13 13527340192954268697
1813 80 11963678763697509699
193927 3 8214150693819156880
19784866 240 8718537329582731089
200 152 8862942770889269135
20157964 124 18271244915810644087
20300324 65 15267345115252706363
204376 136 18343022181417418687
20645477 56 18334853926634996614
20645477 70 18341328895256936198
20871999 31 13542469764931119751
21033648 29 18261657221239474268
21033650 10 15768679541107823624
21637258 2 12396591762514912969
22393880 68 12463306764775585444
22950370 63 11241976966460689847
23402539 116 17846774100683679933
23402655 69 18273210937438300942
235170 7 12751244674886611872
23559900 14 17314523517112348543
27216 239 18334297582794820351
2767999 5 17918270944044753680
2838139 119 18339917109510528629
300161 21 17989201564861094234
3268164 11 15267343994202873793
34797466 226 13398620684560179290
351380 180 18335421244659867273
351380 3 11818995183986372824
4325135 7 18131067169616722327
465052 167 11602831180764604272
474 4 18059859424203580791
5104073 3 18335410323080397154
542803 24 17561081406222488742
5924683 9 17823141284109809163
602551 16 16081093718467455234
7970288 3 11025799803301591937
90127 26 18260271849968717678

>  <PUBCHEM_SHAPE_MULTIPOLES>
367.53
13.99
1.65
1.14
6.85
0.12
-0.23
-7.28
-1.92
0.33
0.12
-1.46
0.15
0.39

>  <PUBCHEM_SHAPE_SELFOVERLAP>
796.156

>  <PUBCHEM_SHAPE_VOLUME>
201.4

>  <PUBCHEM_COORDINATE_TYPE>
2
5
10

>  <Energy>
40.035

$$$$
