5282362
 OpenBabel09212612393D

 29 30  0  0  0  0  0  0  0  0999 V2000
    5.7517    1.4053   -0.3110 O   0  0  0  0  0  0  0  0  0  0  0  0
    0.7558   -2.4144    0.3935 O   0  0  0  0  0  0  0  0  0  0  0  0
    2.0798   -0.4791    0.1189 C   0  0  0  0  0  0  0  0  0  0  0  0
   -2.9343   -0.2273    0.0479 C   0  0  0  0  0  0  0  0  0  0  0  0
    0.7821   -1.2024    0.2169 C   0  0  0  0  0  0  0  0  0  0  0  0
    2.2201    0.8626    0.5058 C   0  0  0  0  0  0  0  0  0  0  0  0
    3.1905   -1.1770   -0.3722 C   0  0  0  0  0  0  0  0  0  0  0  0
   -1.6655   -0.9564    0.2087 C   0  0  0  0  0  0  0  0  0  0  0  0
   -0.4578   -0.3985    0.0389 C   0  0  0  0  0  0  0  0  0  0  0  0
    3.4501    1.5104    0.3617 C   0  0  0  0  0  0  0  0  0  0  0  0
    4.4189   -0.5285   -0.5111 C   0  0  0  0  0  0  0  0  0  0  0  0
   -3.0409    1.1590    0.2358 C   0  0  0  0  0  0  0  0  0  0  0  0
   -4.0946   -0.9497   -0.2599 C   0  0  0  0  0  0  0  0  0  0  0  0
    4.5373    0.8091   -0.1505 C   0  0  0  0  0  0  0  0  0  0  0  0
   -4.2666    1.8099    0.0889 C   0  0  0  0  0  0  0  0  0  0  0  0
   -5.3232   -0.2993   -0.4023 C   0  0  0  0  0  0  0  0  0  0  0  0
   -5.4072    1.0814   -0.2322 C   0  0  0  0  0  0  0  0  0  0  0  0
    5.8661    2.3056   -0.0779 H   0  0  0  0  0  0  0  0  0  0  0  0
    1.4129    1.3723    0.8978 H   0  0  0  0  0  0  0  0  0  0  0  0
    3.1006   -2.1718   -0.6318 H   0  0  0  0  0  0  0  0  0  0  0  0
   -1.7079   -1.9546    0.4671 H   0  0  0  0  0  0  0  0  0  0  0  0
   -0.3874    0.5986   -0.2179 H   0  0  0  0  0  0  0  0  0  0  0  0
    3.5512    2.5009    0.6330 H   0  0  0  0  0  0  0  0  0  0  0  0
    5.2359   -1.0399   -0.8798 H   0  0  0  0  0  0  0  0  0  0  0  0
   -2.2016    1.7047    0.4861 H   0  0  0  0  0  0  0  0  0  0  0  0
   -4.0414   -1.9729   -0.3828 H   0  0  0  0  0  0  0  0  0  0  0  0
   -4.3267    2.8319    0.2184 H   0  0  0  0  0  0  0  0  0  0  0  0
   -6.1697   -0.8422   -0.6339 H   0  0  0  0  0  0  0  0  0  0  0  0
   -6.3135    1.5621   -0.3441 H   0  0  0  0  0  0  0  0  0  0  0  0
  1 14  1  0  0  0  0
  1 18  1  0  0  0  0
  2  5  2  0  0  0  0
  3  5  1  0  0  0  0
  3  6  2  0  0  0  0
  3  7  1  0  0  0  0
  4  8  1  0  0  0  0
  4 12  2  0  0  0  0
  4 13  1  0  0  0  0
  5  9  1  0  0  0  0
  6 10  1  0  0  0  0
  6 19  1  0  0  0  0
  7 11  2  0  0  0  0
  7 20  1  0  0  0  0
  8  9  2  0  0  0  0
  8 21  1  0  0  0  0
  9 22  1  0  0  0  0
 10 14  2  0  0  0  0
 10 23  1  0  0  0  0
 11 14  1  0  0  0  0
 11 24  1  0  0  0  0
 12 15  1  0  0  0  0
 12 25  1  0  0  0  0
 13 16  2  0  0  0  0
 13 26  1  0  0  0  0
 15 17  2  0  0  0  0
 15 27  1  0  0  0  0
 16 17  1  0  0  0  0
 16 28  1  0  0  0  0
 17 29  1  0  0  0  0
M  END
>  <PUBCHEM_COMPOUND_CID>
5282362

>  <PUBCHEM_CONFORMER_RMSD>
0.6

>  <PUBCHEM_CONFORMER_DIVERSEORDER>
1
8
7
4
5
3
2
9
6

>  <PUBCHEM_MMFF94_PARTIAL_CHARGES>
29
1 -0.53
10 -0.15
11 -0.15
12 -0.15
13 -0.15
14 0.08
15 -0.15
16 -0.15
17 -0.15
18 0.15
19 0.15
2 -0.57
20 0.15
21 0.15
22 0.15
23 0.15
24 0.15
25 0.15
26 0.15
27 0.15
28 0.15
29 0.45
3 0.09
4 0.03
5 0.47
6 -0.15
7 -0.15
8 -0.18
9 -0.14

>  <PUBCHEM_EFFECTIVE_ROTOR_COUNT>
3

>  <PUBCHEM_PHARMACOPHORE_FEATURES>
4
1 1 donor
1 2 acceptor
6 3 6 7 10 11 14 rings
6 4 12 13 15 16 17 rings

>  <PUBCHEM_HEAVY_ATOM_COUNT>
17

>  <PUBCHEM_ATOM_DEF_STEREO_COUNT>
0

>  <PUBCHEM_ATOM_UDEF_STEREO_COUNT>
0

>  <PUBCHEM_BOND_DEF_STEREO_COUNT>
1

>  <PUBCHEM_BOND_UDEF_STEREO_COUNT>
0

>  <PUBCHEM_ISOTOPIC_ATOM_COUNT>
0

>  <PUBCHEM_COMPONENT_COUNT>
1

>  <PUBCHEM_CACTVS_TAUTO_COUNT>
4

>  <PUBCHEM_CONFORMER_ID>
00509A3A00000001

>  <PUBCHEM_MMFF94_ENERGY>
52.5017

>  <PUBCHEM_FEATURE_SELFOVERLAP>
20.297

>  <PUBCHEM_SHAPE_FINGERPRINT>
10014705 185 18261107436199136925
100836 57 18333454257023050740
10498660 4 18336541629881806709
10595046 47 18341891887943343119
11128504 68 14979954808828754576
11471102 20 18342460339997653906
12107183 9 17619630181432114731
12507557 5 17240768423439445493
12596602 18 14996292439110615516
12670543 26 18271817800360745526
12730499 353 18410583880835852746
12916748 109 18409172120747952979
13081056 2 18411981355966994389
14251764 18 18259979380318724202
14528608 73 18412259541098866383
15196674 1 18411419488229352097
15788980 27 12607407689043271339
17834072 33 18273492381859727503
17959699 21 18412263917475583001
200 152 17704070690302224107
20300324 65 18201718453685440137
20645477 70 18060144193815905030
212847 35 18408321082164199680
21652331 79 18408321060462880093
221357 26 18131631175309490153
22289505 5 18272369742039031060
22854114 59 18040715861743551111
23402539 116 18342170098433484254
23402655 69 18273496775611219190
23559900 14 18057034705933690867
245318 6 17098918345060179100
2916195 48 18342451603865603016
29717793 49 17132122303628113628
3004659 81 18410859820416993486
34797466 226 17632303405646161909
351380 180 18412543219103857212
351380 3 11095887059712127556
3545911 37 18410294713988803025
4028521 119 18409445865205634273
4072396 5 18343010096275824402
4214541 1 18413670197469373853
441001 317 18410575089453976953
465052 167 8358263653102593312
474 4 18040719190248350845
495365 180 17489579117623677362
4990 188 18059861644733087438
5104073 3 18260832553559369987
5281201 14 18130512946087150558
542803 24 17894632547864499661
59755656 520 17894625980849682386
633830 44 18409163307617876334
77779 3 18413389813351143831

>  <PUBCHEM_SHAPE_MULTIPOLES>
338.11
13.21
1.84
0.69
2.26
0.03
-0.01
-5.13
-2.18
-0.27
0.14
-0.07
0.02
0.01

>  <PUBCHEM_SHAPE_SELFOVERLAP>
729.033

>  <PUBCHEM_SHAPE_VOLUME>
186.2

>  <PUBCHEM_COORDINATE_TYPE>
2
5
10

>  <Energy>
50.0191

$$$$
