5284654
 OpenBabel09212612393D

 38 40  0  0  0  0  0  0  0  0999 V2000
   -1.8270   -1.8868    0.2155 O   0  0  0  0  0  0  0  0  0  0  0  0
    0.2656   -2.7594    0.2863 O   0  0  0  0  0  0  0  0  0  0  0  0
   -6.2532   -0.2422    0.1240 O   0  0  0  0  0  0  0  0  0  0  0  0
    5.7211    0.1459   -0.3583 O   0  0  0  0  0  0  0  0  0  0  0  0
   -0.6807    0.6835   -0.2189 C   0  0  0  0  0  0  0  0  0  0  0  0
   -2.1478    0.5080   -0.1354 C   0  0  0  0  0  0  0  0  0  0  0  0
    0.1069   -0.4108   -0.0951 C   0  0  0  0  0  0  0  0  0  0  0  0
   -0.1277    2.0820   -0.4592 C   0  0  0  0  0  0  0  0  0  0  0  0
   -2.6643   -0.7696    0.0775 C   0  0  0  0  0  0  0  0  0  0  0  0
    1.5781   -0.2903   -0.1426 C   0  0  0  0  0  0  0  0  0  0  0  0
   -0.4515   -1.7736    0.1471 C   0  0  0  0  0  0  0  0  0  0  0  0
   -3.0753    1.5554   -0.2543 C   0  0  0  0  0  0  0  0  0  0  0  0
    0.0472    2.8696    0.8345 C   0  0  0  0  0  0  0  0  0  0  0  0
   -4.0333   -1.0247    0.1675 C   0  0  0  0  0  0  0  0  0  0  0  0
    2.2894   -0.0382    1.0356 C   0  0  0  0  0  0  0  0  0  0  0  0
    2.2712   -0.4059   -1.3520 C   0  0  0  0  0  0  0  0  0  0  0  0
   -4.4551    1.3205   -0.1733 C   0  0  0  0  0  0  0  0  0  0  0  0
   -4.9216    0.0300    0.0378 C   0  0  0  0  0  0  0  0  0  0  0  0
    3.6768    0.1167    1.0056 C   0  0  0  0  0  0  0  0  0  0  0  0
    3.6603   -0.2543   -1.3762 C   0  0  0  0  0  0  0  0  0  0  0  0
    4.3688    0.0109   -0.2011 C   0  0  0  0  0  0  0  0  0  0  0  0
    6.4719    0.3983    0.8237 C   0  0  0  0  0  0  0  0  0  0  0  0
   -6.5433   -1.1216    0.2670 H   0  0  0  0  0  0  0  0  0  0  0  0
   -0.8035    2.6136   -1.0962 H   0  0  0  0  0  0  0  0  0  0  0  0
    0.8371    1.9777   -0.9100 H   0  0  0  0  0  0  0  0  0  0  0  0
   -2.7344    2.5178   -0.4045 H   0  0  0  0  0  0  0  0  0  0  0  0
   -0.9038    2.9905    1.3097 H   0  0  0  0  0  0  0  0  0  0  0  0
    0.4603    3.8315    0.6134 H   0  0  0  0  0  0  0  0  0  0  0  0
    0.7078    2.3394    1.4882 H   0  0  0  0  0  0  0  0  0  0  0  0
   -4.3783   -1.9840    0.3281 H   0  0  0  0  0  0  0  0  0  0  0  0
    1.7850    0.0338    1.9331 H   0  0  0  0  0  0  0  0  0  0  0  0
    1.7576   -0.6029   -2.2252 H   0  0  0  0  0  0  0  0  0  0  0  0
   -5.1208    2.1031   -0.2701 H   0  0  0  0  0  0  0  0  0  0  0  0
    4.1919    0.3099    1.8788 H   0  0  0  0  0  0  0  0  0  0  0  0
    4.1680   -0.3390   -2.2707 H   0  0  0  0  0  0  0  0  0  0  0  0
    7.5092    0.4840    0.5758 H   0  0  0  0  0  0  0  0  0  0  0  0
    6.3353   -0.4093    1.5122 H   0  0  0  0  0  0  0  0  0  0  0  0
    6.1358    1.3099    1.2719 H   0  0  0  0  0  0  0  0  0  0  0  0
  1  9  1  0  0  0  0
  1 11  1  0  0  0  0
  2 11  2  0  0  0  0
  3 18  1  0  0  0  0
  3 23  1  0  0  0  0
  4 21  1  0  0  0  0
  4 22  1  0  0  0  0
  5  6  1  0  0  0  0
  5  7  2  0  0  0  0
  5  8  1  0  0  0  0
  6  9  2  0  0  0  0
  6 12  1  0  0  0  0
  7 10  1  0  0  0  0
  7 11  1  0  0  0  0
  8 13  1  0  0  0  0
  8 24  1  0  0  0  0
  8 25  1  0  0  0  0
  9 14  1  0  0  0  0
 10 15  2  0  0  0  0
 10 16  1  0  0  0  0
 12 17  2  0  0  0  0
 12 26  1  0  0  0  0
 13 27  1  0  0  0  0
 13 28  1  0  0  0  0
 13 29  1  0  0  0  0
 14 18  2  0  0  0  0
 14 30  1  0  0  0  0
 15 19  1  0  0  0  0
 15 31  1  0  0  0  0
 16 20  2  0  0  0  0
 16 32  1  0  0  0  0
 17 18  1  0  0  0  0
 17 33  1  0  0  0  0
 19 21  2  0  0  0  0
 19 34  1  0  0  0  0
 20 21  1  0  0  0  0
 20 35  1  0  0  0  0
 22 36  1  0  0  0  0
 22 37  1  0  0  0  0
 22 38  1  0  0  0  0
M  END
>  <PUBCHEM_COMPOUND_CID>
5284654

>  <PUBCHEM_CONFORMER_RMSD>
0.6

>  <PUBCHEM_CONFORMER_DIVERSEORDER>
1
2

>  <PUBCHEM_MMFF94_PARTIAL_CHARGES>
29
1 -0.23
10 0.03
11 0.71
12 -0.15
14 -0.15
15 -0.15
16 -0.15
17 -0.15
18 0.08
19 -0.15
2 -0.57
20 -0.15
21 0.08
22 0.28
25 0.15
29 0.15
3 -0.53
30 0.15
31 0.15
32 0.15
33 0.15
34 0.15
35 0.45
4 -0.36
5 -0.17
6 0.03
7 -0.01
8 0.14
9 0.08

>  <PUBCHEM_EFFECTIVE_ROTOR_COUNT>
3

>  <PUBCHEM_PHARMACOPHORE_FEATURES>
7
1 13 hydrophobe
1 2 acceptor
1 3 donor
1 4 acceptor
6 1 5 6 7 9 11 rings
6 10 15 16 19 20 21 rings
6 6 9 12 14 17 18 rings

>  <PUBCHEM_HEAVY_ATOM_COUNT>
22

>  <PUBCHEM_ATOM_DEF_STEREO_COUNT>
0

>  <PUBCHEM_ATOM_UDEF_STEREO_COUNT>
0

>  <PUBCHEM_BOND_DEF_STEREO_COUNT>
0

>  <PUBCHEM_BOND_UDEF_STEREO_COUNT>
0

>  <PUBCHEM_ISOTOPIC_ATOM_COUNT>
0

>  <PUBCHEM_COMPONENT_COUNT>
1

>  <PUBCHEM_CACTVS_TAUTO_COUNT>
3

>  <PUBCHEM_CONFORMER_ID>
0050A32E00000001

>  <PUBCHEM_MMFF94_ENERGY>
82.4177

>  <PUBCHEM_FEATURE_SELFOVERLAP>
35.546

>  <PUBCHEM_SHAPE_FINGERPRINT>
10 15 18272640287004378032
10411042 1 17904202877805245235
10498660 4 18338237050762341837
10906281 52 18198925732494676756
1100329 8 18337391663833109257
11578080 2 13828759438983750105
11646440 116 18272099309444175577
11963148 33 18187925131919240259
12011746 2 18410569587563921469
12035758 1 18342460386582905299
12236239 1 17458344148046214174
12403814 3 17167860846799490101
12788726 201 18272087133006624408
12838862 33 18337092511493922101
13140716 1 18192998338661208875
13402501 40 18272646866134853752
13533116 47 18339922607300808306
13583140 156 16226341386155609713
13862211 1 18408601479014727455
14386348 63 18131636681615292974
14787075 74 18341610447031095181
14790565 3 18409455790564436181
15196674 1 18336545993700123399
1601671 61 18335984181965809029
16945 1 18409167719097512431
17804303 29 18337111263099336929
19141452 34 17775284997555521255
200 152 15502371231758648540
20028762 73 18128819832100861311
20510252 161 18341051809356720832
20600515 1 18409739477601973788
20645477 70 16988291867779173206
20715895 44 17246936451822734821
21033648 29 17203315685874422313
21267235 1 18408892858317618675
21279426 13 18196937664699117493
21285901 2 17988373572138532612
23402539 116 18341888610877898318
23557571 272 18343308041898376492
23559900 14 18341621378508737006
26918003 58 14706931734866633468
2748010 2 17975417129375804391
2916195 48 18272927228641032224
3178227 256 18335154115538518675
335352 9 18409728491660627711
34934 24 18340482262728808047
350125 39 18335423465870577157
3680242 22 18335424513050949648
474229 33 18407759231205649247
5104073 3 18190748535817347731
5486654 2 18409452496645507078
59755656 215 18337959991676981222
7226269 152 18409446986044516032
7495541 125 17096101293548562737

>  <PUBCHEM_SHAPE_MULTIPOLES>
429.27
11.85
2.05
0.99
3.79
0.34
-0.13
0.63
0.84
-1.16
0.32
1.05
0.06
0.5

>  <PUBCHEM_SHAPE_SELFOVERLAP>
941.997

>  <PUBCHEM_SHAPE_VOLUME>
232.3

>  <PUBCHEM_COORDINATE_TYPE>
2
5
10

>  <Energy>
68.5147

$$$$
