97762
 OpenBabel09212612403D

 44 45  0  0  1  0  0  0  0  0999 V2000
    2.8945    2.2948    1.7297 O   0  0  0  0  0  0  0  0  0  0  0  0
   -2.8972    2.3105   -1.6906 O   0  0  0  0  0  0  0  0  0  0  0  0
    3.7151    2.7782   -0.9167 O   0  0  0  0  0  0  0  0  0  0  0  0
   -3.6985    2.7905    0.8627 O   0  0  0  0  0  0  0  0  0  0  0  0
    0.6941   -1.8771    0.3702 C   0  0  1  0  0  0  0  0  0  0  0  0
   -0.6865   -1.8751   -0.3881 C   0  0  1  0  0  0  0  0  0  0  0  0
    1.5245   -3.1576    0.1092 C   0  0  0  0  0  0  0  0  0  0  0  0
   -1.5226   -3.1536   -0.1308 C   0  0  0  0  0  0  0  0  0  0  0  0
    1.5116   -0.6308    0.0275 C   0  0  0  0  0  0  0  0  0  0  0  0
   -1.4947   -0.6303   -0.0324 C   0  0  0  0  0  0  0  0  0  0  0  0
    2.8261   -3.2103    0.9028 C   0  0  0  0  0  0  0  0  0  0  0  0
   -2.8507   -3.1807   -0.8814 C   0  0  0  0  0  0  0  0  0  0  0  0
    1.8636    0.2818    1.0367 C   0  0  0  0  0  0  0  0  0  0  0  0
   -1.8353    0.2943   -1.0357 C   0  0  0  0  0  0  0  0  0  0  0  0
    1.9169   -0.3663   -1.2941 C   0  0  0  0  0  0  0  0  0  0  0  0
   -1.9167   -0.3835    1.2871 C   0  0  0  0  0  0  0  0  0  0  0  0
    2.5902    1.4256    0.7228 C   0  0  0  0  0  0  0  0  0  0  0  0
   -2.5697    1.4241   -0.7060 C   0  0  0  0  0  0  0  0  0  0  0  0
    2.6411    0.7875   -1.6027 C   0  0  0  0  0  0  0  0  0  0  0  0
   -2.6502    0.7597    1.6117 C   0  0  0  0  0  0  0  0  0  0  0  0
    2.9787    1.6739   -0.5913 C   0  0  0  0  0  0  0  0  0  0  0  0
   -2.9788    1.6583    0.6021 C   0  0  0  0  0  0  0  0  0  0  0  0
    2.6235    2.1087    2.6071 H   0  0  0  0  0  0  0  0  0  0  0  0
   -2.6222    2.1539   -2.5725 H   0  0  0  0  0  0  0  0  0  0  0  0
    3.9566    3.3929   -0.2520 H   0  0  0  0  0  0  0  0  0  0  0  0
   -3.9088    3.3824    0.1674 H   0  0  0  0  0  0  0  0  0  0  0  0
    0.4620   -1.8641    1.4146 H   0  0  0  0  0  0  0  0  0  0  0  0
   -0.4577   -1.8622   -1.4332 H   0  0  0  0  0  0  0  0  0  0  0  0
    1.7613   -3.2013   -0.9333 H   0  0  0  0  0  0  0  0  0  0  0  0
    0.9293   -3.9888    0.4250 H   0  0  0  0  0  0  0  0  0  0  0  0
   -1.7260   -3.2187    0.9176 H   0  0  0  0  0  0  0  0  0  0  0  0
   -0.9455   -3.9810   -0.4875 H   0  0  0  0  0  0  0  0  0  0  0  0
    3.4525   -2.3919    0.6151 H   0  0  0  0  0  0  0  0  0  0  0  0
    3.3296   -4.1327    0.7014 H   0  0  0  0  0  0  0  0  0  0  0  0
    2.6093   -3.1432    1.9484 H   0  0  0  0  0  0  0  0  0  0  0  0
   -3.4621   -2.3660   -0.5539 H   0  0  0  0  0  0  0  0  0  0  0  0
   -3.3527   -4.1049   -0.6848 H   0  0  0  0  0  0  0  0  0  0  0  0
   -2.6686   -3.0902   -1.9319 H   0  0  0  0  0  0  0  0  0  0  0  0
    1.5823    0.1028    2.0134 H   0  0  0  0  0  0  0  0  0  0  0  0
   -1.5406    0.1333   -2.0115 H   0  0  0  0  0  0  0  0  0  0  0  0
    1.6760   -1.0329   -2.0443 H   0  0  0  0  0  0  0  0  0  0  0  0
   -1.6795   -1.0603    2.0292 H   0  0  0  0  0  0  0  0  0  0  0  0
    2.9230    0.9790   -2.5768 H   0  0  0  0  0  0  0  0  0  0  0  0
   -2.9439    0.9351    2.5853 H   0  0  0  0  0  0  0  0  0  0  0  0
  1 17  1  0  0  0  0
  1 23  1  0  0  0  0
  2 18  1  0  0  0  0
  2 24  1  0  0  0  0
  3 21  1  0  0  0  0
  3 25  1  0  0  0  0
  4 22  1  0  0  0  0
  4 26  1  0  0  0  0
  5  6  1  0  0  0  0
  5  7  1  0  0  0  0
  5  9  1  0  0  0  0
  5 27  1  1  0  0  0
  6  8  1  0  0  0  0
  6 10  1  0  0  0  0
  6 28  1  6  0  0  0
  7 11  1  0  0  0  0
  7 29  1  0  0  0  0
  7 30  1  0  0  0  0
  8 12  1  0  0  0  0
  8 31  1  0  0  0  0
  8 32  1  0  0  0  0
  9 13  2  0  0  0  0
  9 15  1  0  0  0  0
 10 14  2  0  0  0  0
 10 16  1  0  0  0  0
 11 33  1  0  0  0  0
 11 34  1  0  0  0  0
 11 35  1  0  0  0  0
 12 36  1  0  0  0  0
 12 37  1  0  0  0  0
 12 38  1  0  0  0  0
 13 17  1  0  0  0  0
 13 39  1  0  0  0  0
 14 18  1  0  0  0  0
 14 40  1  0  0  0  0
 15 19  2  0  0  0  0
 15 41  1  0  0  0  0
 16 20  2  0  0  0  0
 16 42  1  0  0  0  0
 17 21  2  0  0  0  0
 18 22  2  0  0  0  0
 19 21  1  0  0  0  0
 19 43  1  0  0  0  0
 20 22  1  0  0  0  0
 20 44  1  0  0  0  0
M  END
>  <PUBCHEM_COMPOUND_CID>
97762

>  <PUBCHEM_CONFORMER_RMSD>
0.8

>  <PUBCHEM_CONFORMER_DIVERSEORDER>
3
19
14
6
11
20
21
17
7
1
9
16
4
18
5
15
10
8
13
12
2

>  <PUBCHEM_MMFF94_PARTIAL_CHARGES>
28
1 -0.53
10 -0.14
13 -0.15
14 -0.15
15 -0.15
16 -0.15
17 0.08
18 0.08
19 -0.15
2 -0.53
20 -0.15
21 0.08
22 0.08
3 -0.53
35 0.15
36 0.15
37 0.15
38 0.15
39 0.15
4 -0.53
40 0.15
41 0.45
42 0.45
43 0.45
44 0.45
5 0.14
6 0.14
9 -0.14

>  <PUBCHEM_EFFECTIVE_ROTOR_COUNT>
5

>  <PUBCHEM_PHARMACOPHORE_FEATURES>
9
1 1 donor
1 11 hydrophobe
1 12 hydrophobe
1 2 donor
1 3 donor
1 4 donor
4 5 6 7 8 hydrophobe
6 10 14 16 18 20 22 rings
6 9 13 15 17 19 21 rings

>  <PUBCHEM_HEAVY_ATOM_COUNT>
22

>  <PUBCHEM_ATOM_DEF_STEREO_COUNT>
0

>  <PUBCHEM_ATOM_UDEF_STEREO_COUNT>
2

>  <PUBCHEM_BOND_DEF_STEREO_COUNT>
0

>  <PUBCHEM_BOND_UDEF_STEREO_COUNT>
0

>  <PUBCHEM_ISOTOPIC_ATOM_COUNT>
0

>  <PUBCHEM_COMPONENT_COUNT>
1

>  <PUBCHEM_CACTVS_TAUTO_COUNT>
407

>  <PUBCHEM_CONFORMER_ID>
00017DE200000003

>  <PUBCHEM_MMFF94_ENERGY>
59.6882

>  <PUBCHEM_FEATURE_SELFOVERLAP>
45.682

>  <PUBCHEM_SHAPE_FINGERPRINT>
10006869 2 18341615949559804827
10165383 225 18122097314116364341
10498660 4 18193838369190950557
10871710 139 17974019636753206725
12156800 1 15445709115465673165
12173636 292 18272092682404784153
12788726 201 17977664539010057735
128993 33 18338814363059916609
13132413 78 18050848810940144294
13134695 92 17757545257582661470
13140716 1 18265616477122797163
13294875 104 18342458102287920978
133893 2 17677312983987920826
14178342 30 18339637953277717248
14386348 128 18338812164041974784
14713325 29 17028857426047490478
14955137 171 17980493256080207907
15238133 3 17474128500424765929
17357779 13 17626661953481772999
17980427 23 17414968310961384618
18785283 64 18120110393836767353
18981168 100 18411139138423101800
20510252 161 17979073009263317294
20671657 1 18337113354268459638
21524375 3 18411427219117977726
23175994 123 17686350762866197987
23402539 116 17693092281395076470
23557571 272 17981330297929227622
23558518 356 18408878517159002403
23559900 14 17024330534590453249
238 59 18119516649136690941
283562 15 18122344850272135942
350125 39 18410296912559092571
469060 322 17973451189457911403
495365 180 18120643648592474061
5252454 2 18338815458282085697
6442390 28 18122091889699348411
74978 22 18271242716333928531
7808743 9 18266755747078832756
81228 2 17906748238010515563

>  <PUBCHEM_SHAPE_MULTIPOLES>
429.27
6.15
4.27
1.53
0.01
2.26
0.01
-4.02
0.01
-0.02
0.01
-0.01
-0.69
-0.87

>  <PUBCHEM_SHAPE_SELFOVERLAP>
909.868

>  <PUBCHEM_SHAPE_VOLUME>
240.6

>  <PUBCHEM_COORDINATE_TYPE>
2
5
10

>  <Energy>
37.3418

$$$$
