442428
 OpenBabel09212612393D

 73 77  0  0  1  0  0  0  0  0999 V2000
    3.4870   -0.2904    0.7213 O   0  0  0  0  0  0  0  0  0  0  0  0
    1.3012    2.6167    0.1268 O   0  0  0  0  0  0  0  0  0  0  0  0
    4.8091   -1.0119   -1.0959 O   0  0  0  0  0  0  0  0  0  0  0  0
    1.3732    0.5468   -0.9978 O   0  0  0  0  0  0  0  0  0  0  0  0
    5.0414    1.9906    1.7827 O   0  0  0  0  0  0  0  0  0  0  0  0
    3.3530    4.0136    2.8736 O   0  0  0  0  0  0  0  0  0  0  0  0
    6.7775   -1.9242    0.8612 O   0  0  0  0  0  0  0  0  0  0  0  0
    5.2050   -4.1543    1.6287 O   0  0  0  0  0  0  0  0  0  0  0  0
    3.7486   -4.5584   -0.7780 O   0  0  0  0  0  0  0  0  0  0  0  0
   -0.3789    4.6958    0.8515 O   0  0  0  0  0  0  0  0  0  0  0  0
   -3.1833   -0.4912   -0.0864 O   0  0  0  0  0  0  0  0  0  0  0  0
   -1.8907    1.7009   -4.2128 O   0  0  0  0  0  0  0  0  0  0  0  0
   -4.4422    1.0224   -3.6745 O   0  0  0  0  0  0  0  0  0  0  0  0
   -7.9788   -2.5468    3.4100 O   0  0  0  0  0  0  0  0  0  0  0  0
    3.1841    1.0969    0.4693 C   0  0  2  0  0  0  0  0  0  0  0  0
    3.6096    1.9317    1.6893 C   0  0  2  0  0  0  0  0  0  0  0  0
    3.0625    3.3606    1.6329 C   0  0  1  0  0  0  0  0  0  0  0  0
    4.7995   -0.6371    0.2892 C   0  0  2  0  0  0  0  0  0  0  0  0
    1.6665    1.2360    0.2326 C   0  0  1  0  0  0  0  0  0  0  0  0
    5.3773   -1.7653    1.1594 C   0  0  1  0  0  0  0  0  0  0  0  0
    1.5626    3.3477    1.3316 C   0  0  1  0  0  0  0  0  0  0  0  0
    4.6100   -3.0679    0.9033 C   0  0  1  0  0  0  0  0  0  0  0  0
    4.5725   -3.4005   -0.5946 C   0  0  2  0  0  0  0  0  0  0  0  0
    4.0441   -2.1875   -1.3819 C   0  0  2  0  0  0  0  0  0  0  0  0
    1.0208    4.7654    1.1290 C   0  0  0  0  0  0  0  0  0  0  0  0
    4.1404   -2.4116   -2.8893 C   0  0  0  0  0  0  0  0  0  0  0  0
    0.0506    0.5765   -1.3363 C   0  0  0  0  0  0  0  0  0  0  0  0
   -0.9431    0.0193   -0.5295 C   0  0  0  0  0  0  0  0  0  0  0  0
   -0.2717    1.1244   -2.5741 C   0  0  0  0  0  0  0  0  0  0  0  0
   -2.2725    0.0658   -0.9499 C   0  0  0  0  0  0  0  0  0  0  0  0
   -2.6116    0.6185   -2.1906 C   0  0  0  0  0  0  0  0  0  0  0  0
   -4.5044    0.0422   -0.2600 C   0  0  1  0  0  0  0  0  0  0  0  0
   -1.6015    1.1510   -2.9990 C   0  0  0  0  0  0  0  0  0  0  0  0
   -4.9792   -0.1535   -1.6892 C   0  0  0  0  0  0  0  0  0  0  0  0
   -4.0394    0.5670   -2.6102 C   0  0  0  0  0  0  0  0  0  0  0  0
   -5.4162   -0.6651    0.7241 C   0  0  0  0  0  0  0  0  0  0  0  0
   -6.0718    0.0606    1.7308 C   0  0  0  0  0  0  0  0  0  0  0  0
   -5.6284   -2.0527    0.6462 C   0  0  0  0  0  0  0  0  0  0  0  0
   -6.9270   -0.5860    2.6263 C   0  0  0  0  0  0  0  0  0  0  0  0
   -6.4880   -2.6971    1.5371 C   0  0  0  0  0  0  0  0  0  0  0  0
   -7.1312   -1.9559    2.5209 C   0  0  0  0  0  0  0  0  0  0  0  0
    5.4003    1.0901    1.8192 H   0  0  0  0  0  0  0  0  0  0  0  0
    4.3104    4.0016    3.0290 H   0  0  0  0  0  0  0  0  0  0  0  0
    7.2409   -1.0890    1.0305 H   0  0  0  0  0  0  0  0  0  0  0  0
    5.2260   -3.9386    2.5742 H   0  0  0  0  0  0  0  0  0  0  0  0
    4.1130   -5.2986   -0.2680 H   0  0  0  0  0  0  0  0  0  0  0  0
   -0.7278    5.5915    0.7221 H   0  0  0  0  0  0  0  0  0  0  0  0
   -1.2034    2.0537   -4.7431 H   0  0  0  0  0  0  0  0  0  0  0  0
   -8.4035   -2.0305    4.0665 H   0  0  0  0  0  0  0  0  0  0  0  0
    3.7113    1.4459   -0.3939 H   0  0  0  0  0  0  0  0  0  0  0  0
    3.2009    1.4457    2.5505 H   0  0  0  0  0  0  0  0  0  0  0  0
    3.5334    3.9049    0.8411 H   0  0  0  0  0  0  0  0  0  0  0  0
    5.4196    0.2279    0.3997 H   0  0  0  0  0  0  0  0  0  0  0  0
    1.1133    0.8195    1.0483 H   0  0  0  0  0  0  0  0  0  0  0  0
    5.2717   -1.5165    2.1947 H   0  0  0  0  0  0  0  0  0  0  0  0
    1.0825    2.8889    2.1706 H   0  0  0  0  0  0  0  0  0  0  0  0
    3.6059   -2.9282    1.2455 H   0  0  0  0  0  0  0  0  0  0  0  0
    5.5533   -3.6160   -0.9640 H   0  0  0  0  0  0  0  0  0  0  0  0
    3.0241   -2.0646   -1.0827 H   0  0  0  0  0  0  0  0  0  0  0  0
    1.1819    5.3408    2.0166 H   0  0  0  0  0  0  0  0  0  0  0  0
    1.5278    5.2314    0.3101 H   0  0  0  0  0  0  0  0  0  0  0  0
    5.1666   -2.5320   -3.1671 H   0  0  0  0  0  0  0  0  0  0  0  0
    3.7286   -1.5678   -3.4023 H   0  0  0  0  0  0  0  0  0  0  0  0
    3.5934   -3.2921   -3.1546 H   0  0  0  0  0  0  0  0  0  0  0  0
   -0.6966   -0.4231    0.3696 H   0  0  0  0  0  0  0  0  0  0  0  0
    0.4712    1.5105   -3.1773 H   0  0  0  0  0  0  0  0  0  0  0  0
   -4.5116    1.0958   -0.0735 H   0  0  0  0  0  0  0  0  0  0  0  0
   -5.9664    0.2445   -1.7985 H   0  0  0  0  0  0  0  0  0  0  0  0
   -4.9967   -1.1963   -1.9284 H   0  0  0  0  0  0  0  0  0  0  0  0
   -5.9210    1.0784    1.8099 H   0  0  0  0  0  0  0  0  0  0  0  0
   -5.1420   -2.6021   -0.0795 H   0  0  0  0  0  0  0  0  0  0  0  0
   -7.4060   -0.0471    3.3646 H   0  0  0  0  0  0  0  0  0  0  0  0
   -6.6444   -3.7147    1.4658 H   0  0  0  0  0  0  0  0  0  0  0  0
  1 15  1  0  0  0  0
  1 18  1  0  0  0  0
  2 19  1  0  0  0  0
  2 21  1  0  0  0  0
  3 18  1  0  0  0  0
  3 24  1  0  0  0  0
  4 19  1  0  0  0  0
  4 27  1  0  0  0  0
  5 16  1  0  0  0  0
  5 42  1  0  0  0  0
  6 17  1  0  0  0  0
  6 43  1  0  0  0  0
  7 20  1  0  0  0  0
  7 44  1  0  0  0  0
  8 22  1  0  0  0  0
  8 45  1  0  0  0  0
  9 23  1  0  0  0  0
  9 46  1  0  0  0  0
 10 25  1  0  0  0  0
 10 47  1  0  0  0  0
 11 30  1  0  0  0  0
 11 32  1  0  0  0  0
 12 33  1  0  0  0  0
 12 48  1  0  0  0  0
 13 35  2  0  0  0  0
 14 41  1  0  0  0  0
 14 49  1  0  0  0  0
 15 16  1  0  0  0  0
 15 19  1  0  0  0  0
 15 50  1  6  0  0  0
 16 17  1  0  0  0  0
 16 51  1  1  0  0  0
 17 21  1  0  0  0  0
 17 52  1  6  0  0  0
 18 20  1  0  0  0  0
 18 53  1  1  0  0  0
 19 54  1  1  0  0  0
 20 22  1  0  0  0  0
 20 55  1  1  0  0  0
 21 25  1  0  0  0  0
 21 56  1  1  0  0  0
 22 23  1  0  0  0  0
 22 57  1  1  0  0  0
 23 24  1  0  0  0  0
 23 58  1  6  0  0  0
 24 26  1  0  0  0  0
 24 59  1  1  0  0  0
 25 60  1  0  0  0  0
 25 61  1  0  0  0  0
 26 62  1  0  0  0  0
 26 63  1  0  0  0  0
 26 64  1  0  0  0  0
 27 28  1  0  0  0  0
 27 29  2  0  0  0  0
 28 30  2  0  0  0  0
 28 65  1  0  0  0  0
 29 33  1  0  0  0  0
 29 66  1  0  0  0  0
 30 31  1  0  0  0  0
 31 33  2  0  0  0  0
 31 35  1  0  0  0  0
 32 34  1  0  0  0  0
 32 36  1  0  0  0  0
 32 67  1  1  0  0  0
 34 35  1  0  0  0  0
 34 68  1  0  0  0  0
 34 69  1  0  0  0  0
 36 37  2  0  0  0  0
 36 38  1  0  0  0  0
 37 39  1  0  0  0  0
 37 70  1  0  0  0  0
 38 40  2  0  0  0  0
 38 71  1  0  0  0  0
 39 41  2  0  0  0  0
 39 72  1  0  0  0  0
 40 41  1  0  0  0  0
 40 73  1  0  0  0  0
M  END
>  <PUBCHEM_COMPOUND_CID>
442428

>  <PUBCHEM_CONFORMER_RMSD>
1.2

>  <PUBCHEM_CONFORMER_DIVERSEORDER>
2
204
42
287
179
37
90
206
224
185
285
149
106
105
8
272
253
180
77
290
112
219
33
131
284
93
53
36
154
274
176
211
245
258
157
169
235
4
229
122
200
238
55
256
213
171
57
242
286
186
115
294
225
278
159
3
75
144
78
141
214
175
191
240
32
192
270
79
69
269
228
76
196
207
282
184
43
85
84
266
251
116
120
68
217
267
208
283
13
44
203
178
218
177
280
248
222
161
226
173
249
123
5
198
138
143
48
289
81
188
117
252
83
243
132
124
212
110
156
254
202
121
227
273
139
275
155
67
80
87
113
129
261
268
244
62
89
92
35
174
1
281
263
279
265
148
231
216
210
164
111
162
232
133
237
262
147
264
233
137
291
19
109
102
127
96
151
223
172
73
230
63
49
94
97
250
21
259
140
145
190
128
71
255
220
30
209
39
10
45
166
239
104
247
165
193
146
98
271
199
59
108
257
60
136
292
28
293
181
86
234
125
74
99
16
27
88
47
18
288
160
158
163
6
46
189
187
152
260
9
51
134
40
215
241
114
194
70
107
246
130
95
29
64
72
195
236
197
183
50
65
17
103
170
201
11
41
20
182
61
153
142
118
52
100
7
277
119
168
276
101
15
58
150
66
34
205
82
221
24
56
167
38
26
54
22
31
91
12
23
126
25
135
14

>  <PUBCHEM_MMFF94_PARTIAL_CHARGES>
54
1 -0.56
10 -0.68
11 -0.36
12 -0.53
13 -0.57
14 -0.53
15 0.28
16 0.28
17 0.28
18 0.56
19 0.56
2 -0.56
20 0.28
21 0.28
22 0.28
23 0.28
24 0.28
25 0.28
27 0.08
28 -0.15
29 -0.15
3 -0.56
30 0.08
31 0.09
32 0.42
33 0.08
34 0.06
35 0.42
36 -0.14
37 -0.15
38 -0.15
39 -0.15
4 -0.36
40 -0.15
41 0.08
5 -0.68
57 0.4
58 0.4
59 0.4
6 -0.68
60 0.4
61 0.4
62 0.4
63 0.15
64 0.15
68 0.15
69 0.15
7 -0.68
70 0.45
71 0.15
72 0.15
73 0.45
8 -0.68
9 -0.68

>  <PUBCHEM_EFFECTIVE_ROTOR_COUNT>
9

>  <PUBCHEM_PHARMACOPHORE_FEATURES>
25
1 1 acceptor
1 10 acceptor
1 10 donor
1 11 acceptor
1 12 donor
1 13 acceptor
1 14 donor
1 2 acceptor
1 3 acceptor
1 4 acceptor
1 5 acceptor
1 5 donor
1 6 acceptor
1 6 donor
1 7 acceptor
1 7 donor
1 8 acceptor
1 8 donor
1 9 acceptor
1 9 donor
6 11 30 31 32 34 35 rings
6 2 15 16 17 19 21 rings
6 27 28 29 30 31 33 rings
6 3 18 20 22 23 24 rings
6 36 37 38 39 40 41 rings

>  <PUBCHEM_HEAVY_ATOM_COUNT>
41

>  <PUBCHEM_ATOM_DEF_STEREO_COUNT>
11

>  <PUBCHEM_ATOM_UDEF_STEREO_COUNT>
0

>  <PUBCHEM_BOND_DEF_STEREO_COUNT>
0

>  <PUBCHEM_BOND_UDEF_STEREO_COUNT>
0

>  <PUBCHEM_ISOTOPIC_ATOM_COUNT>
0

>  <PUBCHEM_COMPONENT_COUNT>
1

>  <PUBCHEM_CACTVS_TAUTO_COUNT>
18

>  <PUBCHEM_CONFORMER_ID>
0006C03C00000002

>  <PUBCHEM_MMFF94_ENERGY>
132.6286

>  <PUBCHEM_FEATURE_SELFOVERLAP>
127.041

>  <PUBCHEM_SHAPE_FINGERPRINT>
10169797 241 18272365344414428682
10190108 129 18272654601835658688
10985338 15 17686065294177174668
11135926 11 18199453537095121272
11399510 152 18270403922991938265
12342043 65 18187080641893431351
13673619 4 18186524301905111151
13782708 43 18186521012408977619
14017579 30 18267888111560297129
14950920 106 18272937163401288099
15324884 4 17896854712694545973
15392192 104 17901115432052656867
15776043 110 18059585667272370003
19246450 95 17630889296601742833
21796203 349 18130497566690458706
21814621 53 18409731755904715273
22033318 11 17203344290361907915
2303208 19 18186518804595145499
249057 25 16845564362314792349
2748736 6 13326575104000004283
394071 54 17846212259370222326
42626532 9 18261103037662794901
4408954 64 18125469460860566321
563151 74 18057604480420737001
6201320 77 18263088712786114767
6700243 42 17313096415443232277
86090 222 18114470023456089627

>  <PUBCHEM_SHAPE_MULTIPOLES>
761.59
18.58
5.41
3.78
20.98
2.05
2.52
-19.18
-14.45
-9.18
-3.49
5.14
0.75
6.23

>  <PUBCHEM_SHAPE_SELFOVERLAP>
1647.83

>  <PUBCHEM_SHAPE_VOLUME>
411.2

>  <PUBCHEM_COORDINATE_TYPE>
2
5
10

>  <Energy>
229.435

$$$$
