6230
 OpenBabel09212612403D

 48 51  0  0  1  0  0  0  0  0999 V2000
    4.6647   -0.6900   -0.6760 O   0  0  0  0  0  0  0  0  0  0  0  0
   -5.5178   -0.8373    1.3268 O   0  0  0  0  0  0  0  0  0  0  0  0
    1.4358    0.7696    0.2467 C   0  0  2  0  0  0  0  0  0  0  0  0
    2.2375   -0.2339   -0.6121 C   0  0  2  0  0  0  0  0  0  0  0  0
    0.0467    1.0607   -0.3263 C   0  0  1  0  0  0  0  0  0  0  0  0
   -0.7592   -0.2815   -0.4031 C   0  0  2  0  0  0  0  0  0  0  0  0
    1.4630   -1.5643   -0.6491 C   0  0  0  0  0  0  0  0  0  0  0  0
    3.5995   -0.2290    0.1454 C   0  0  2  0  0  0  0  0  0  0  0  0
    2.4072    1.9310    0.4410 C   0  0  0  0  0  0  0  0  0  0  0  0
    0.0225   -1.3800   -1.1594 C   0  0  0  0  0  0  0  0  0  0  0  0
   -2.1604    0.0047   -1.0062 C   0  0  2  0  0  0  0  0  0  0  0  0
    3.8019    1.2714    0.4888 C   0  0  0  0  0  0  0  0  0  0  0  0
   -0.7096    2.1196    0.5005 C   0  0  0  0  0  0  0  0  0  0  0  0
    2.4646    0.2392   -2.0782 C   0  0  0  0  0  0  0  0  0  0  0  0
   -2.1328    2.3414   -0.0184 C   0  0  0  0  0  0  0  0  0  0  0  0
   -2.8429    1.0177   -0.1035 C   0  0  0  0  0  0  0  0  0  0  0  0
   -3.0584   -1.2179   -1.2506 C   0  0  0  0  0  0  0  0  0  0  0  0
    3.5926   -1.0335    1.3833 C   0  0  0  0  0  0  0  0  0  0  0  0
   -3.7098   -1.7292    0.0228 C   0  0  0  0  0  0  0  0  0  0  0  0
   -3.9304    0.7535    0.6378 C   0  0  0  0  0  0  0  0  0  0  0  0
   -4.4919   -0.6202    0.6876 C   0  0  0  0  0  0  0  0  0  0  0  0
    3.5814   -1.6885    2.3935 C   0  0  0  0  0  0  0  0  0  0  0  0
    4.6871   -0.1733   -1.4966 H   0  0  0  0  0  0  0  0  0  0  0  0
    1.1389    0.4083    1.2090 H   0  0  0  0  0  0  0  0  0  0  0  0
    0.1573    1.4706   -1.3084 H   0  0  0  0  0  0  0  0  0  0  0  0
   -0.8983   -0.6741    0.5825 H   0  0  0  0  0  0  0  0  0  0  0  0
    1.4295   -1.9720    0.3397 H   0  0  0  0  0  0  0  0  0  0  0  0
    1.9701   -2.2230   -1.3228 H   0  0  0  0  0  0  0  0  0  0  0  0
    2.2016    2.4457    1.3563 H   0  0  0  0  0  0  0  0  0  0  0  0
    2.3299    2.6585   -0.3398 H   0  0  0  0  0  0  0  0  0  0  0  0
    0.0606   -1.1169   -2.1959 H   0  0  0  0  0  0  0  0  0  0  0  0
   -0.4919   -2.3039   -0.9961 H   0  0  0  0  0  0  0  0  0  0  0  0
   -2.0029    0.3807   -1.9955 H   0  0  0  0  0  0  0  0  0  0  0  0
    4.4509    1.7293   -0.2282 H   0  0  0  0  0  0  0  0  0  0  0  0
    4.2492    1.3878    1.4538 H   0  0  0  0  0  0  0  0  0  0  0  0
   -0.1748    3.0450    0.4491 H   0  0  0  0  0  0  0  0  0  0  0  0
   -0.7759    1.7672    1.5086 H   0  0  0  0  0  0  0  0  0  0  0  0
    1.5317    0.2373   -2.6021 H   0  0  0  0  0  0  0  0  0  0  0  0
    3.1485   -0.4242   -2.5651 H   0  0  0  0  0  0  0  0  0  0  0  0
    2.8697    1.2295   -2.0747 H   0  0  0  0  0  0  0  0  0  0  0  0
   -2.0935    2.7890   -0.9894 H   0  0  0  0  0  0  0  0  0  0  0  0
   -2.6610    2.9892    0.6497 H   0  0  0  0  0  0  0  0  0  0  0  0
   -2.4630   -2.0021   -1.6696 H   0  0  0  0  0  0  0  0  0  0  0  0
   -3.8405   -0.9173   -1.9161 H   0  0  0  0  0  0  0  0  0  0  0  0
   -2.9517   -2.0783    0.6925 H   0  0  0  0  0  0  0  0  0  0  0  0
   -4.3762   -2.5298   -0.2218 H   0  0  0  0  0  0  0  0  0  0  0  0
   -4.3793    1.5104    1.1769 H   0  0  0  0  0  0  0  0  0  0  0  0
    3.5722   -2.2293    3.2275 H   0  0  0  0  0  0  0  0  0  0  0  0
  1  8  1  0  0  0  0
  1 23  1  0  0  0  0
  2 21  2  0  0  0  0
  3  4  1  0  0  0  0
  3  5  1  0  0  0  0
  3  9  1  0  0  0  0
  3 24  1  1  0  0  0
  4  7  1  0  0  0  0
  4  8  1  0  0  0  0
  4 14  1  6  0  0  0
  5  6  1  0  0  0  0
  5 13  1  0  0  0  0
  5 25  1  6  0  0  0
  6 10  1  0  0  0  0
  6 11  1  0  0  0  0
  6 26  1  1  0  0  0
  7 10  1  0  0  0  0
  7 27  1  0  0  0  0
  7 28  1  0  0  0  0
  8 12  1  0  0  0  0
  8 18  1  1  0  0  0
  9 12  1  0  0  0  0
  9 29  1  0  0  0  0
  9 30  1  0  0  0  0
 10 31  1  0  0  0  0
 10 32  1  0  0  0  0
 11 16  1  0  0  0  0
 11 17  1  0  0  0  0
 11 33  1  6  0  0  0
 12 34  1  0  0  0  0
 12 35  1  0  0  0  0
 13 15  1  0  0  0  0
 13 36  1  0  0  0  0
 13 37  1  0  0  0  0
 14 38  1  0  0  0  0
 14 39  1  0  0  0  0
 14 40  1  0  0  0  0
 15 16  1  0  0  0  0
 15 41  1  0  0  0  0
 15 42  1  0  0  0  0
 16 20  2  0  0  0  0
 17 19  1  0  0  0  0
 17 43  1  0  0  0  0
 17 44  1  0  0  0  0
 18 22  3  0  0  0  0
 19 21  1  0  0  0  0
 19 45  1  0  0  0  0
 19 46  1  0  0  0  0
 20 21  1  0  0  0  0
 20 47  1  0  0  0  0
 22 48  1  0  0  0  0
M  END
>  <PUBCHEM_COMPOUND_CID>
6230

>  <PUBCHEM_CONFORMER_RMSD>
0.6

>  <PUBCHEM_CONFORMER_DIVERSEORDER>
1
2

>  <PUBCHEM_MMFF94_PARTIAL_CHARGES>
14
1 -0.68
11 0.14
15 0.14
16 -0.28
18 -0.2
19 0.06
2 -0.57
20 -0.14
21 0.49
22 -0.18
44 0.4
47 0.15
48 0.18
8 0.48

>  <PUBCHEM_EFFECTIVE_ROTOR_COUNT>
1.8

>  <PUBCHEM_PHARMACOPHORE_FEATURES>
8
1 1 acceptor
1 1 donor
1 2 acceptor
1 22 hydrophobe
5 3 4 8 9 12 rings
6 11 16 17 19 20 21 rings
6 3 4 5 6 7 10 rings
6 5 6 11 13 15 16 rings

>  <PUBCHEM_HEAVY_ATOM_COUNT>
22

>  <PUBCHEM_ATOM_DEF_STEREO_COUNT>
6

>  <PUBCHEM_ATOM_UDEF_STEREO_COUNT>
0

>  <PUBCHEM_BOND_DEF_STEREO_COUNT>
0

>  <PUBCHEM_BOND_UDEF_STEREO_COUNT>
0

>  <PUBCHEM_ISOTOPIC_ATOM_COUNT>
0

>  <PUBCHEM_COMPONENT_COUNT>
1

>  <PUBCHEM_CACTVS_TAUTO_COUNT>
8

>  <PUBCHEM_CONFORMER_ID>
0000185600000001

>  <PUBCHEM_MMFF94_ENERGY>
63.8962

>  <PUBCHEM_FEATURE_SELFOVERLAP>
40.708

>  <PUBCHEM_SHAPE_FINGERPRINT>
11089746 13 14476961160008569995
11132069 177 17846773005735953781
11552529 35 17131548478849608775
11796584 16 16370999750587908515
12236239 1 18113625551892492972
12403259 415 17561079186035808592
12403814 3 18272367581881302341
12553582 1 18342173371340975591
12633257 1 17774713242591841945
12892183 10 18261377924322307536
13009979 54 18188493450374850924
13140716 1 18128816524299919719
13224815 77 18413668023883632309
13533116 47 17895188883632056995
13583140 156 18041539404337091708
13675066 3 17275103920600433533
14081887 123 17846490401235598435
14178342 30 17984986998820437600
14223421 5 18342177704810093901
14341114 176 18410862070125099888
14787075 74 18045498874774009468
14790565 3 17693378158323498816
15196674 1 18272932747362745189
15375462 189 18335978735456485529
16945 1 18200589194396923076
17349148 13 18260547826928574423
17492 89 18262516983482074099
1813 80 18040444308378898885
18186145 218 16845572006834092790
19862831 5 8286204946129922413
200 152 14345794972345110765
20028762 73 17845090852147521375
20261772 1 18130790074699492687
20739085 24 18341623658255727429
21033648 29 17059766715705102801
21069387 34 16950285065877935720
21267235 1 18343030990168086711
21421861 104 18337394842103861202
22182313 1 17844814680758270213
23503953 91 17632295700785770193
23557571 272 17917998239238300117
23559900 14 18057608668319928894
2748010 2 17771062692284002996
2838139 119 14188467924128246003
312423 11 18187936049065586188
33382 64 17095530604042936699
3472631 163 13614249153232602795
4340502 62 17749387118234380568
465052 167 18408892844810588547
474 4 14188989229477592370
5104073 3 18341327816729385592
7064713 232 17489872652620823307
7097593 13 17901374598342030130

>  <PUBCHEM_SHAPE_MULTIPOLES>
441.01
9.41
2.14
1.55
3.93
0.62
-0.21
-2.72
-3.43
0.25
-0.35
-1.05
-0.7
-0.56

>  <PUBCHEM_SHAPE_SELFOVERLAP>
949.149

>  <PUBCHEM_SHAPE_VOLUME>
240.1

>  <PUBCHEM_COORDINATE_TYPE>
2
5
10

>  <Energy>
64.7617

$$$$
