676308
 OpenBabel09212612403D

 30 32  0  0  0  0  0  0  0  0999 V2000
   -0.2457   -0.9328    0.0005 O   0  0  0  0  0  0  0  0  0  0  0  0
    0.8150    2.6202   -0.0034 O   0  0  0  0  0  0  0  0  0  0  0  0
   -1.9854    2.7534    0.0015 O   0  0  0  0  0  0  0  0  0  0  0  0
   -5.7504   -0.6754    0.0039 O   0  0  0  0  0  0  0  0  0  0  0  0
    6.0444   -0.7899   -0.0307 O   0  0  0  0  0  0  0  0  0  0  0  0
   -2.2563    0.4233    0.0004 C   0  0  0  0  0  0  0  0  0  0  0  0
    0.5188    0.2195   -0.0004 C   0  0  0  0  0  0  0  0  0  0  0  0
   -1.6096   -0.8090   -0.0002 C   0  0  0  0  0  0  0  0  0  0  0  0
    1.9601   -0.0598    0.0032 C   0  0  0  0  0  0  0  0  0  0  0  0
    0.0336    1.4772   -0.0018 C   0  0  0  0  0  0  0  0  0  0  0  0
   -1.4476    1.6517    0.0000 C   0  0  0  0  0  0  0  0  0  0  0  0
   -3.6540    0.4941    0.0019 C   0  0  0  0  0  0  0  0  0  0  0  0
   -2.3560   -1.9876   -0.0008 C   0  0  0  0  0  0  0  0  0  0  0  0
   -4.3876   -0.6868    0.0019 C   0  0  0  0  0  0  0  0  0  0  0  0
    2.6529   -0.1751    1.2162 C   0  0  0  0  0  0  0  0  0  0  0  0
    2.6554   -0.1909   -1.2053 C   0  0  0  0  0  0  0  0  0  0  0  0
   -3.7506   -1.9245    0.0002 C   0  0  0  0  0  0  0  0  0  0  0  0
    4.0280   -0.4210    1.2215 C   0  0  0  0  0  0  0  0  0  0  0  0
    4.0293   -0.4358   -1.1986 C   0  0  0  0  0  0  0  0  0  0  0  0
    4.7037   -0.5493    0.0120 C   0  0  0  0  0  0  0  0  0  0  0  0
    1.7493    2.5490   -0.0045 H   0  0  0  0  0  0  0  0  0  0  0  0
   -6.2120    0.1400    0.0051 H   0  0  0  0  0  0  0  0  0  0  0  0
    6.5311   -0.8723    0.7657 H   0  0  0  0  0  0  0  0  0  0  0  0
   -4.1326    1.4085    0.0029 H   0  0  0  0  0  0  0  0  0  0  0  0
   -1.8790   -2.9027   -0.0019 H   0  0  0  0  0  0  0  0  0  0  0  0
    2.1450   -0.0779    2.1093 H   0  0  0  0  0  0  0  0  0  0  0  0
    2.1512   -0.1065   -2.1018 H   0  0  0  0  0  0  0  0  0  0  0  0
   -4.3078   -2.7932   -0.0003 H   0  0  0  0  0  0  0  0  0  0  0  0
    4.5382   -0.5067    2.1144 H   0  0  0  0  0  0  0  0  0  0  0  0
    4.5427   -0.5321   -2.0886 H   0  0  0  0  0  0  0  0  0  0  0  0
  1  7  1  0  0  0  0
  1  8  1  0  0  0  0
  2 10  1  0  0  0  0
  2 21  1  0  0  0  0
  3 11  2  0  0  0  0
  4 14  1  0  0  0  0
  4 22  1  0  0  0  0
  5 20  1  0  0  0  0
  5 23  1  0  0  0  0
  6  8  2  0  0  0  0
  6 11  1  0  0  0  0
  6 12  1  0  0  0  0
  7  9  1  0  0  0  0
  7 10  2  0  0  0  0
  8 13  1  0  0  0  0
  9 15  2  0  0  0  0
  9 16  1  0  0  0  0
 10 11  1  0  0  0  0
 12 14  2  0  0  0  0
 12 24  1  0  0  0  0
 13 17  2  0  0  0  0
 13 25  1  0  0  0  0
 14 17  1  0  0  0  0
 15 18  1  0  0  0  0
 15 26  1  0  0  0  0
 16 19  2  0  0  0  0
 16 27  1  0  0  0  0
 17 28  1  0  0  0  0
 18 20  2  0  0  0  0
 18 29  1  0  0  0  0
 19 20  1  0  0  0  0
 19 30  1  0  0  0  0
M  END
>  <PUBCHEM_COMPOUND_CID>
676308

>  <PUBCHEM_CONFORMER_RMSD>
0.6

>  <PUBCHEM_CONFORMER_DIVERSEORDER>
1

>  <PUBCHEM_MMFF94_PARTIAL_CHARGES>
30
1 -0.16
10 0.09
11 0.47
12 -0.15
13 -0.15
14 0.08
15 -0.15
16 -0.15
17 -0.15
18 -0.15
19 -0.15
2 -0.53
20 0.08
21 0.15
22 0.15
23 0.15
24 0.15
25 0.15
26 0.15
27 0.15
28 0.45
29 0.45
3 -0.57
30 0.45
4 -0.53
5 -0.53
6 0.09
7 0.05
8 0.08
9 0.03

>  <PUBCHEM_EFFECTIVE_ROTOR_COUNT>
1

>  <PUBCHEM_PHARMACOPHORE_FEATURES>
8
1 1 acceptor
1 2 donor
1 3 acceptor
1 4 donor
1 5 donor
6 1 6 7 8 10 11 rings
6 6 8 12 13 14 17 rings
6 9 15 16 18 19 20 rings

>  <PUBCHEM_HEAVY_ATOM_COUNT>
20

>  <PUBCHEM_ATOM_DEF_STEREO_COUNT>
0

>  <PUBCHEM_ATOM_UDEF_STEREO_COUNT>
0

>  <PUBCHEM_BOND_DEF_STEREO_COUNT>
0

>  <PUBCHEM_BOND_UDEF_STEREO_COUNT>
0

>  <PUBCHEM_ISOTOPIC_ATOM_COUNT>
0

>  <PUBCHEM_COMPONENT_COUNT>
1

>  <PUBCHEM_CACTVS_TAUTO_COUNT>
18

>  <PUBCHEM_CONFORMER_ID>
000A51D400000001

>  <PUBCHEM_MMFF94_ENERGY>
59.1099

>  <PUBCHEM_FEATURE_SELFOVERLAP>
40.625

>  <PUBCHEM_SHAPE_FINGERPRINT>
10 15 17988347253491416458
10319926 262 18197757940046347170
11046707 91 18409167722922942395
11543360 7 15647336389646679595
12107183 9 17540807296928369482
12236239 1 17749108864235202222
12553582 1 18335973242452127651
12788726 201 18261107427012974017
13140716 1 18339645676019052379
13288520 33 18410856564219768935
13862211 1 18411134758205741655
14115302 16 17749113334684481038
14386348 63 17917714591240272142
15099037 51 18410574007391419231
15196674 1 18338517546734246789
15536298 74 18269273632890124225
15848700 24 18343298197437389895
16752209 62 18261946371622741041
16945 1 18410575063663145509
17492 89 17908702083670418503
17804303 29 18413669123543050625
1813 80 17967819344438719798
18222031 100 18343014536464912671
19141452 34 17775002431678476183
19862831 5 17530966895176594106
200 152 16732700536946672028
20028762 73 18058169617273219503
20374829 77 18411699915513695423
20510252 161 18200593592459433865
21033648 29 17059762343465312290
21267235 1 18408891758737731043
2297311 6 18341901774889304870
23366157 5 17898568940962822596
23402539 116 18341888589397819607
23536379 177 16009023973940744087
23557571 272 18272935977668671068
23559900 14 18339356469816657880
23845131 108 17264428539391343385
26918003 58 16773798112318488978
2748010 2 18194395817729115317
3004659 81 18113616811059149478
314173 85 18272661155300708027
335352 9 18410291420202594037
3411729 13 18125712637825681072
34797466 226 18059868285728603316
4325135 7 18336266829975130316
465052 167 18337681922424498743
474 4 17096664282394333612
5104073 3 18197505228317996155
559249 180 18042398037277728874
59755656 215 18338518538940894446
67856867 119 18188213234019113908
7364860 26 18127131003055615168
77492 1 17676210130911829504
8863177 126 17680160852590719523
9709674 26 18048878790903572459

>  <PUBCHEM_SHAPE_MULTIPOLES>
382.24
10.72
2.02
0.91
3.64
1.17
0
-4.89
0.01
-1.79
-0.01
1.05
-0.1
0.01

>  <PUBCHEM_SHAPE_SELFOVERLAP>
854.743

>  <PUBCHEM_SHAPE_VOLUME>
201.5

>  <PUBCHEM_COORDINATE_TYPE>
2
5
10

>  <Energy>
57.1788

$$$$
