6984
 OpenBabel09212612403D

 25 25  0  0  1  0  0  0  0  0999 V2000
   -0.3122   -2.2533   -0.4085 O   0  0  0  0  0  0  0  0  0  0  0  0
    1.5419   -0.0736   -0.5515 C   0  0  1  0  0  0  0  0  0  0  0  0
    2.4543    0.4179    0.5914 C   0  0  0  0  0  0  0  0  0  0  0  0
    0.0642    0.0992   -0.2362 C   0  0  0  0  0  0  0  0  0  0  0  0
    1.8879    0.6403   -1.8649 C   0  0  0  0  0  0  0  0  0  0  0  0
    2.2677   -0.3695    1.8835 C   0  0  0  0  0  0  0  0  0  0  0  0
   -0.8045   -0.9990   -0.1775 C   0  0  0  0  0  0  0  0  0  0  0  0
   -0.4678    1.3780    0.0060 C   0  0  0  0  0  0  0  0  0  0  0  0
   -2.1594   -0.8330    0.1131 C   0  0  0  0  0  0  0  0  0  0  0  0
   -1.8213    1.5489    0.2970 C   0  0  0  0  0  0  0  0  0  0  0  0
   -2.6657    0.4438    0.3503 C   0  0  0  0  0  0  0  0  0  0  0  0
    0.5965   -2.3713   -0.6040 H   0  0  0  0  0  0  0  0  0  0  0  0
    1.7227   -1.1227   -0.6591 H   0  0  0  0  0  0  0  0  0  0  0  0
    2.2344    1.4471    0.7846 H   0  0  0  0  0  0  0  0  0  0  0  0
    3.4669    0.2784    0.2750 H   0  0  0  0  0  0  0  0  0  0  0  0
    1.7076    1.6896   -1.7588 H   0  0  0  0  0  0  0  0  0  0  0  0
    1.2782    0.2516   -2.6535 H   0  0  0  0  0  0  0  0  0  0  0  0
    2.9194    0.4775   -2.0983 H   0  0  0  0  0  0  0  0  0  0  0  0
    1.2623   -0.2525    2.2304 H   0  0  0  0  0  0  0  0  0  0  0  0
    2.9459   -0.0033    2.6256 H   0  0  0  0  0  0  0  0  0  0  0  0
    2.4638   -1.4055    1.7013 H   0  0  0  0  0  0  0  0  0  0  0  0
    0.1522    2.2022   -0.0321 H   0  0  0  0  0  0  0  0  0  0  0  0
   -2.7846   -1.6531    0.1523 H   0  0  0  0  0  0  0  0  0  0  0  0
   -2.1963    2.4942    0.4728 H   0  0  0  0  0  0  0  0  0  0  0  0
   -3.6671    0.5698    0.5655 H   0  0  0  0  0  0  0  0  0  0  0  0
  1  7  1  0  0  0  0
  1 12  1  0  0  0  0
  2  3  1  0  0  0  0
  2  4  1  0  0  0  0
  2  5  1  0  0  0  0
  2 13  1  6  0  0  0
  3  6  1  0  0  0  0
  3 14  1  0  0  0  0
  3 15  1  0  0  0  0
  4  7  1  0  0  0  0
  4  8  2  0  0  0  0
  5 16  1  0  0  0  0
  5 17  1  0  0  0  0
  5 18  1  0  0  0  0
  6 19  1  0  0  0  0
  6 20  1  0  0  0  0
  6 21  1  0  0  0  0
  7  9  2  0  0  0  0
  8 10  1  0  0  0  0
  8 22  1  0  0  0  0
  9 11  1  0  0  0  0
  9 23  1  0  0  0  0
 10 11  2  0  0  0  0
 10 24  1  0  0  0  0
 11 25  1  0  0  0  0
M  END
>  <PUBCHEM_COMPOUND_CID>
6984

>  <PUBCHEM_CONFORMER_RMSD>
0.4

>  <PUBCHEM_CONFORMER_DIVERSEORDER>
1
17
12
13
8
2
15
11
3
14
4
9
6
7
16
10
5

>  <PUBCHEM_MMFF94_PARTIAL_CHARGES>
13
1 -0.53
10 -0.15
11 -0.15
2 0.14
21 0.15
22 0.15
23 0.15
24 0.15
25 0.45
4 -0.14
7 0.08
8 -0.15
9 -0.15

>  <PUBCHEM_EFFECTIVE_ROTOR_COUNT>
2

>  <PUBCHEM_PHARMACOPHORE_FEATURES>
4
1 1 donor
1 5 hydrophobe
1 6 hydrophobe
6 4 7 8 9 10 11 rings

>  <PUBCHEM_HEAVY_ATOM_COUNT>
11

>  <PUBCHEM_ATOM_DEF_STEREO_COUNT>
0

>  <PUBCHEM_ATOM_UDEF_STEREO_COUNT>
1

>  <PUBCHEM_BOND_DEF_STEREO_COUNT>
0

>  <PUBCHEM_BOND_UDEF_STEREO_COUNT>
0

>  <PUBCHEM_ISOTOPIC_ATOM_COUNT>
0

>  <PUBCHEM_COMPONENT_COUNT>
1

>  <PUBCHEM_CACTVS_TAUTO_COUNT>
3

>  <PUBCHEM_CONFORMER_ID>
00001B4800000001

>  <PUBCHEM_MMFF94_ENERGY>
24.4083

>  <PUBCHEM_FEATURE_SELFOVERLAP>
20.297

>  <PUBCHEM_SHAPE_FINGERPRINT>
10857977 72 18272932760495449985
12423570 1 8260993329062135293
13839132 238 17846499192812457912
13898156 1 18187366583715101830
15310529 11 17022906799849590957
16945 1 18413114965540528461
20511035 2 17763750888604255485
20645464 45 17775564247438264448
21040471 1 18341060622492117909
21922407 69 17023199248219868400
23211744 41 17489293179437532432
23552423 10 18189633656358976495
27216 239 16410368958041379362
2748010 2 17978521836521736877
369184 2 18340472426652443433
5084963 1 17987534653045042325
54338 74 18052794099916826311

>  <PUBCHEM_SHAPE_MULTIPOLES>
220.51
3.64
1.6
1.36
0.04
0.38
-0.04
-0.37
-0.87
-0.59
0.19
1.31
-0.03
-0.63

>  <PUBCHEM_SHAPE_SELFOVERLAP>
448.177

>  <PUBCHEM_SHAPE_VOLUME>
129.3

>  <PUBCHEM_COORDINATE_TYPE>
2
5
10

>  <Energy>
14.2923

$$$$
