8289
 OpenBabel09212612403D

 38 40  0  0  0  0  0  0  0  0999 V2000
   -0.0006    0.0005   -0.2410 P   0  0  0  0  0  0  0  0  0  0  0  0
   -1.0413    1.0287    0.4403 O   0  0  0  0  0  0  0  0  0  0  0  0
    1.4099    0.3881    0.4428 O   0  0  0  0  0  0  0  0  0  0  0  0
   -0.3705   -1.4151    0.4412 O   0  0  0  0  0  0  0  0  0  0  0  0
    0.0009    0.0004   -1.7453 O   0  0  0  0  0  0  0  0  0  0  0  0
   -2.3869    1.0147    0.2101 C   0  0  0  0  0  0  0  0  0  0  0  0
    2.0716    1.5598    0.2116 C   0  0  0  0  0  0  0  0  0  0  0  0
    0.3141   -2.5734    0.2101 C   0  0  0  0  0  0  0  0  0  0  0  0
   -3.0227    0.0917   -0.6186 C   0  0  0  0  0  0  0  0  0  0  0  0
    1.5933    2.5706   -0.6198 C   0  0  0  0  0  0  0  0  0  0  0  0
    1.4307   -2.6626   -0.6192 C   0  0  0  0  0  0  0  0  0  0  0  0
   -3.1347    1.9923    0.8659 C   0  0  0  0  0  0  0  0  0  0  0  0
    3.2925    1.7164    0.8672 C   0  0  0  0  0  0  0  0  0  0  0  0
   -0.1602   -3.7100    0.8651 C   0  0  0  0  0  0  0  0  0  0  0  0
   -4.4075    0.1379   -0.7787 C   0  0  0  0  0  0  0  0  0  0  0  0
    2.3282    3.7442   -0.7811 C   0  0  0  0  0  0  0  0  0  0  0  0
    2.0810   -3.8849   -0.7802 C   0  0  0  0  0  0  0  0  0  0  0  0
   -4.5192    2.0396    0.7029 C   0  0  0  0  0  0  0  0  0  0  0  0
    4.0291    2.8904    0.7026 C   0  0  0  0  0  0  0  0  0  0  0  0
    0.4897   -4.9338    0.7021 C   0  0  0  0  0  0  0  0  0  0  0  0
   -5.1562    1.1091   -0.1162 C   0  0  0  0  0  0  0  0  0  0  0  0
    3.5444    3.9072   -0.1191 C   0  0  0  0  0  0  0  0  0  0  0  0
    1.6136   -5.0199   -0.1183 C   0  0  0  0  0  0  0  0  0  0  0  0
   -2.4692   -0.6252   -1.1133 H   0  0  0  0  0  0  0  0  0  0  0  0
    0.6961    2.4506   -1.1155 H   0  0  0  0  0  0  0  0  0  0  0  0
    1.7755   -1.8248   -1.1134 H   0  0  0  0  0  0  0  0  0  0  0  0
   -2.6632    2.6814    1.4725 H   0  0  0  0  0  0  0  0  0  0  0  0
    3.6517    0.9634    1.4747 H   0  0  0  0  0  0  0  0  0  0  0  0
   -0.9931   -3.6455    1.4711 H   0  0  0  0  0  0  0  0  0  0  0  0
   -4.8786   -0.5484   -1.3887 H   0  0  0  0  0  0  0  0  0  0  0  0
    1.9709    4.4948   -1.3926 H   0  0  0  0  0  0  0  0  0  0  0  0
    2.9106   -3.9500   -1.3907 H   0  0  0  0  0  0  0  0  0  0  0  0
   -5.0716    2.7634    1.1887 H   0  0  0  0  0  0  0  0  0  0  0  0
    4.9320    3.0058    1.1888 H   0  0  0  0  0  0  0  0  0  0  0  0
    0.1390   -5.7739    1.1880 H   0  0  0  0  0  0  0  0  0  0  0  0
   -6.1812    1.1393   -0.2322 H   0  0  0  0  0  0  0  0  0  0  0  0
    4.0847    4.7785   -0.2370 H   0  0  0  0  0  0  0  0  0  0  0  0
    2.0992   -5.9229   -0.2357 H   0  0  0  0  0  0  0  0  0  0  0  0
  1  2  1  0  0  0  0
  1  3  1  0  0  0  0
  1  4  1  0  0  0  0
  1  5  2  0  0  0  0
  2  6  1  0  0  0  0
  3  7  1  0  0  0  0
  4  8  1  0  0  0  0
  6  9  2  0  0  0  0
  6 12  1  0  0  0  0
  7 10  2  0  0  0  0
  7 13  1  0  0  0  0
  8 11  2  0  0  0  0
  8 14  1  0  0  0  0
  9 15  1  0  0  0  0
  9 24  1  0  0  0  0
 10 16  1  0  0  0  0
 10 25  1  0  0  0  0
 11 17  1  0  0  0  0
 11 26  1  0  0  0  0
 12 18  2  0  0  0  0
 12 27  1  0  0  0  0
 13 19  2  0  0  0  0
 13 28  1  0  0  0  0
 14 20  2  0  0  0  0
 14 29  1  0  0  0  0
 15 21  2  0  0  0  0
 15 30  1  0  0  0  0
 16 22  2  0  0  0  0
 16 31  1  0  0  0  0
 17 23  2  0  0  0  0
 17 32  1  0  0  0  0
 18 21  1  0  0  0  0
 18 33  1  0  0  0  0
 19 22  1  0  0  0  0
 19 34  1  0  0  0  0
 20 23  1  0  0  0  0
 20 35  1  0  0  0  0
 21 36  1  0  0  0  0
 22 37  1  0  0  0  0
 23 38  1  0  0  0  0
M  END
>  <PUBCHEM_COMPOUND_CID>
8289

>  <PUBCHEM_CONFORMER_RMSD>
0.8

>  <PUBCHEM_CONFORMER_DIVERSEORDER>
1
4
16
18
8
17
2
3
15
10
12
7
14
19
11
9
5
13
6

>  <PUBCHEM_MMFF94_PARTIAL_CHARGES>
38
1 1.51
10 -0.15
11 -0.15
12 -0.15
13 -0.15
14 -0.15
15 -0.15
16 -0.15
17 -0.15
18 -0.15
19 -0.15
2 -0.35
20 -0.15
21 -0.15
22 -0.15
23 -0.15
24 0.15
25 0.15
26 0.15
27 0.15
28 0.15
29 0.15
3 -0.35
30 0.15
31 0.15
32 0.15
33 0.15
34 0.15
35 0.15
36 0.15
37 0.15
38 0.15
4 -0.35
5 -0.7
6 0.08
7 0.08
8 0.08
9 -0.15

>  <PUBCHEM_EFFECTIVE_ROTOR_COUNT>
6

>  <PUBCHEM_PHARMACOPHORE_FEATURES>
4
1 5 acceptor
6 6 9 12 15 18 21 rings
6 7 10 13 16 19 22 rings
6 8 11 14 17 20 23 rings

>  <PUBCHEM_HEAVY_ATOM_COUNT>
23

>  <PUBCHEM_ATOM_DEF_STEREO_COUNT>
0

>  <PUBCHEM_ATOM_UDEF_STEREO_COUNT>
0

>  <PUBCHEM_BOND_DEF_STEREO_COUNT>
0

>  <PUBCHEM_BOND_UDEF_STEREO_COUNT>
0

>  <PUBCHEM_ISOTOPIC_ATOM_COUNT>
0

>  <PUBCHEM_COMPONENT_COUNT>
1

>  <PUBCHEM_CACTVS_TAUTO_COUNT>
1

>  <PUBCHEM_CONFORMER_ID>
0000206100000001

>  <PUBCHEM_MMFF94_ENERGY>
61.4808

>  <PUBCHEM_FEATURE_SELFOVERLAP>
20.297

>  <PUBCHEM_SHAPE_FINGERPRINT>
10090160 65 18339912818774668989
10411042 1 17690280409277078867
11045515 52 17617665349594632251
11056379 131 17545049655254804564
12553582 1 17689431582158592211
12643181 29 14664710055271309719
12788726 201 17765134460426068254
13004483 165 17184465963122517466
13052359 8 17977660136768903557
13134695 92 17976826376522071327
13533116 47 18265060133472473193
13590594 115 17473838225350541353
138480 1 18122344566777446483
13955234 65 18338806606955499113
14251757 5 17544749492426736183
15042514 8 17545044165679802290
15230672 131 18335995268173063044
15664445 248 17769666303785030870
17980427 26 18341324513751601589
1813 80 17695351369731261775
18785283 64 18408604729888141994
19319366 153 18343013437380423045
20028762 73 18342444959250288350
20600515 1 16908626563388121273
20739085 24 18335132047590850160
21033650 10 17629792155401509352
21049683 271 17974592215722300437
21524375 3 18202001070512191005
2255824 54 18341052896046496863
23366157 5 18338520716493899389
23558518 356 18269552917544271158
23559900 14 18193551161129264345
23598288 3 17684649114451499288
3091708 16 9260807654706512088
352729 6 18194401327591718968
4409770 3 17760362593110036319
474 4 18410855469140700225
532947 4 18340211787063355862
59755656 520 18266452290575286260
633830 44 18272371983769548773
6443956 14 18120938300217274548
7164475 11 17255121667414774884
77188 2 17762338020024909852
79837 15 18266740379431769912
9981440 41 18337951311320716369

>  <PUBCHEM_SHAPE_MULTIPOLES>
453.7
7.57
7.56
1.04
8.52
9.83
-0.14
-9.84
0.53
-8.48
0.52
0
0
0

>  <PUBCHEM_SHAPE_SELFOVERLAP>
966.364

>  <PUBCHEM_SHAPE_VOLUME>
250

>  <PUBCHEM_COORDINATE_TYPE>
2
5
10

>  <Energy>
41.0659

$$$$
