5284645
 OpenBabel09212612403D

 47 48  0  0  1  0  0  0  0  0999 V2000
    5.1346   -1.1719    0.0786 O   0  0  0  0  0  0  0  0  0  0  0  0
   -0.1092    1.6994    0.7074 O   0  0  0  0  0  0  0  0  0  0  0  0
   -0.6212    2.0176   -1.5159 O   0  0  0  0  0  0  0  0  0  0  0  0
   -3.4420    2.0044   -1.1281 O   0  0  0  0  0  0  0  0  0  0  0  0
   -4.9710   -2.1921    0.3643 O   0  0  0  0  0  0  0  0  0  0  0  0
    3.9672    0.7816   -0.7028 C   0  0  0  0  0  0  0  0  0  0  0  0
    3.8256   -0.6364   -0.1233 C   0  0  1  0  0  0  0  0  0  0  0  0
    2.6660    1.5884   -0.7130 C   0  0  0  0  0  0  0  0  0  0  0  0
    3.0475   -1.5832   -1.0500 C   0  0  0  0  0  0  0  0  0  0  0  0
    2.2705    2.0915    0.6792 C   0  0  0  0  0  0  0  0  0  0  0  0
    2.7289   -2.9437   -0.4119 C   0  0  0  0  0  0  0  0  0  0  0  0
    0.8848    2.7453    0.6914 C   0  0  2  0  0  0  0  0  0  0  0  0
    1.7147   -2.8888    0.7367 C   0  0  0  0  0  0  0  0  0  0  0  0
    0.6774    3.5539    1.9687 C   0  0  0  0  0  0  0  0  0  0  0  0
    0.3605   -2.3962    0.3039 C   0  0  0  0  0  0  0  0  0  0  0  0
   -1.8097    0.4375   -0.2057 C   0  0  0  0  0  0  0  0  0  0  0  0
   -1.5496   -0.8274    0.3585 C   0  0  0  0  0  0  0  0  0  0  0  0
   -0.7474    1.4353   -0.4494 C   0  0  0  0  0  0  0  0  0  0  0  0
   -0.2099   -1.2745    0.7723 C   0  0  0  0  0  0  0  0  0  0  0  0
   -3.1163    0.7861   -0.5840 C   0  0  0  0  0  0  0  0  0  0  0  0
   -2.6305   -1.7089    0.5567 C   0  0  0  0  0  0  0  0  0  0  0  0
   -3.9205   -1.3434    0.1790 C   0  0  0  0  0  0  0  0  0  0  0  0
   -4.1710   -0.1023   -0.3943 C   0  0  0  0  0  0  0  0  0  0  0  0
    5.6380   -0.5836    0.6627 H   0  0  0  0  0  0  0  0  0  0  0  0
   -2.7738    2.6437   -1.2792 H   0  0  0  0  0  0  0  0  0  0  0  0
   -4.8302   -3.0349    0.7487 H   0  0  0  0  0  0  0  0  0  0  0  0
    4.3186    0.6988   -1.7101 H   0  0  0  0  0  0  0  0  0  0  0  0
    4.6495    1.3066   -0.0674 H   0  0  0  0  0  0  0  0  0  0  0  0
    3.2775   -0.5608    0.7925 H   0  0  0  0  0  0  0  0  0  0  0  0
    1.8804    0.9662   -1.0880 H   0  0  0  0  0  0  0  0  0  0  0  0
    2.8226    2.4458   -1.3338 H   0  0  0  0  0  0  0  0  0  0  0  0
    3.6321   -1.7511   -1.9303 H   0  0  0  0  0  0  0  0  0  0  0  0
    2.1119   -1.1115   -1.2668 H   0  0  0  0  0  0  0  0  0  0  0  0
    2.9930    2.8114    1.0026 H   0  0  0  0  0  0  0  0  0  0  0  0
    2.2386    1.2466    1.3348 H   0  0  0  0  0  0  0  0  0  0  0  0
    3.6405   -3.3560   -0.0327 H   0  0  0  0  0  0  0  0  0  0  0  0
    2.2849   -3.5420   -1.1799 H   0  0  0  0  0  0  0  0  0  0  0  0
    0.8036    3.3798   -0.1664 H   0  0  0  0  0  0  0  0  0  0  0  0
    2.0909   -2.2313    1.4924 H   0  0  0  0  0  0  0  0  0  0  0  0
    1.5901   -3.8871    1.1010 H   0  0  0  0  0  0  0  0  0  0  0  0
    0.7612    2.9077    2.8174 H   0  0  0  0  0  0  0  0  0  0  0  0
   -0.2952    3.9998    1.9545 H   0  0  0  0  0  0  0  0  0  0  0  0
    1.4206    4.3211    2.0298 H   0  0  0  0  0  0  0  0  0  0  0  0
   -0.1595   -2.9521   -0.3929 H   0  0  0  0  0  0  0  0  0  0  0  0
    0.3138   -0.7011    1.4519 H   0  0  0  0  0  0  0  0  0  0  0  0
   -2.4653   -2.6331    0.9853 H   0  0  0  0  0  0  0  0  0  0  0  0
   -5.1290    0.1579   -0.6765 H   0  0  0  0  0  0  0  0  0  0  0  0
  1  7  1  0  0  0  0
  1 24  1  0  0  0  0
  2 12  1  0  0  0  0
  2 18  1  0  0  0  0
  3 18  2  0  0  0  0
  4 20  1  0  0  0  0
  4 25  1  0  0  0  0
  5 22  1  0  0  0  0
  5 26  1  0  0  0  0
  6  7  1  0  0  0  0
  6  8  1  0  0  0  0
  6 27  1  0  0  0  0
  6 28  1  0  0  0  0
  7  9  1  0  0  0  0
  7 29  1  1  0  0  0
  8 10  1  0  0  0  0
  8 30  1  0  0  0  0
  8 31  1  0  0  0  0
  9 11  1  0  0  0  0
  9 32  1  0  0  0  0
  9 33  1  0  0  0  0
 10 12  1  0  0  0  0
 10 34  1  0  0  0  0
 10 35  1  0  0  0  0
 11 13  1  0  0  0  0
 11 36  1  0  0  0  0
 11 37  1  0  0  0  0
 12 14  1  0  0  0  0
 12 38  1  6  0  0  0
 13 15  1  0  0  0  0
 13 39  1  0  0  0  0
 13 40  1  0  0  0  0
 14 41  1  0  0  0  0
 14 42  1  0  0  0  0
 14 43  1  0  0  0  0
 15 19  2  0  0  0  0
 15 44  1  0  0  0  0
 16 17  2  0  0  0  0
 16 18  1  0  0  0  0
 16 20  1  0  0  0  0
 17 19  1  0  0  0  0
 17 21  1  0  0  0  0
 19 45  1  0  0  0  0
 20 23  2  0  0  0  0
 21 22  2  0  0  0  0
 21 46  1  0  0  0  0
 22 23  1  0  0  0  0
 23 47  1  0  0  0  0
M  END
>  <PUBCHEM_COMPOUND_CID>
5284645

>  <PUBCHEM_CONFORMER_RMSD>
0.6

>  <PUBCHEM_CONFORMER_DIVERSEORDER>
1

>  <PUBCHEM_MMFF94_PARTIAL_CHARGES>
24
1 -0.68
12 0.28
13 0.14
15 -0.29
16 0.09
17 0.03
18 0.63
19 -0.18
2 -0.43
20 0.08
21 -0.15
22 0.08
23 -0.15
3 -0.57
4 -0.53
41 0.4
42 0.15
43 0.15
44 0.15
45 0.15
46 0.45
47 0.45
5 -0.53
7 0.28

>  <PUBCHEM_EFFECTIVE_ROTOR_COUNT>
1.8

>  <PUBCHEM_PHARMACOPHORE_FEATURES>
6
1 1 acceptor
1 1 donor
1 3 acceptor
1 4 donor
1 5 donor
6 16 17 20 21 22 23 rings

>  <PUBCHEM_HEAVY_ATOM_COUNT>
23

>  <PUBCHEM_ATOM_DEF_STEREO_COUNT>
2

>  <PUBCHEM_ATOM_UDEF_STEREO_COUNT>
0

>  <PUBCHEM_BOND_DEF_STEREO_COUNT>
1

>  <PUBCHEM_BOND_UDEF_STEREO_COUNT>
0

>  <PUBCHEM_ISOTOPIC_ATOM_COUNT>
0

>  <PUBCHEM_COMPONENT_COUNT>
1

>  <PUBCHEM_CACTVS_TAUTO_COUNT>
12

>  <PUBCHEM_CONFORMER_ID>
0050A32500000001

>  <PUBCHEM_MMFF94_ENERGY>
56.9454

>  <PUBCHEM_FEATURE_SELFOVERLAP>
30.446

>  <PUBCHEM_SHAPE_FINGERPRINT>
1100329 8 17836085568009856625
11112241 14 16986289841619931392
11578080 2 16734366241365874279
12166972 35 17967822613537111974
12403259 226 18337670931286267939
12506688 2 18412827975731104564
12596599 1 17914633677902020662
12788726 201 17627507133988941776
13140716 1 18267582403486064363
13402501 40 18336828697047978282
13533116 47 18056766653224983451
14251757 17 18262232209996353437
14787075 74 18336834185758012246
14790565 3 17545883724776523813
14866123 147 17767415573386001256
14931854 50 18336551491284682350
15196674 1 18334859415888043750
15322687 12 17104511174142344237
19591789 44 18337109089556020683
19930381 70 18413393137471364090
20028762 73 17044582808783771111
20691752 17 17022900138402631537
20715895 44 17609482839964013085
20832881 197 18343306989256920753
20905425 154 18409167675446349782
22182313 1 18041826412212926463
23227448 37 18189331260828617463
23352939 185 18342462530415398027
23557571 272 17910374109985112994
23559900 14 18335978778501818797
238 59 18196346307921625956
2748010 2 18117544331403189953
3323516 105 18411138077713944259
350125 39 18336268960321048513
3524813 1 18334011700965522918
3680242 22 18116995477305685354
463206 1 18269557311053435927
5265222 85 17471861776259798556
57527585 103 17390829632986241626
59755656 215 18188762977069237031
6443956 14 18340493347406701473
81228 2 17476913559209296171

>  <PUBCHEM_SHAPE_MULTIPOLES>
443.98
8.21
4.09
1.18
1.54
0.84
-0.09
-3.84
1.51
-1.8
-1.33
-0.11
0.8
1.1

>  <PUBCHEM_SHAPE_SELFOVERLAP>
916.908

>  <PUBCHEM_SHAPE_VOLUME>
252.3

>  <PUBCHEM_COORDINATE_TYPE>
2
5
10

>  <Energy>
40.5071

$$$$
