5280805
 OpenBabel09212612403D

 73 77  0  0  1  0  0  0  0  0999 V2000
    0.9569   -0.0959    1.7504 O   0  0  0  0  0  0  0  0  0  0  0  0
    0.7557    2.5636    0.9993 O   0  0  0  0  0  0  0  0  0  0  0  0
   -1.3675    3.5632    0.6109 O   0  0  0  0  0  0  0  0  0  0  0  0
    3.0923    2.1567    3.7404 O   0  0  0  0  0  0  0  0  0  0  0  0
    4.9316    0.1551    2.8487 O   0  0  0  0  0  0  0  0  0  0  0  0
    1.2004   -2.3460    1.0510 O   0  0  0  0  0  0  0  0  0  0  0  0
    3.6877   -2.4855    2.5259 O   0  0  0  0  0  0  0  0  0  0  0  0
   -0.0828    5.4468   -1.1591 O   0  0  0  0  0  0  0  0  0  0  0  0
    0.3179    3.6491   -3.1830 O   0  0  0  0  0  0  0  0  0  0  0  0
   -1.8269    1.7510   -2.5817 O   0  0  0  0  0  0  0  0  0  0  0  0
   -1.5177   -1.6759   -1.3322 O   0  0  0  0  0  0  0  0  0  0  0  0
   -1.0965   -2.3243    2.6737 O   0  0  0  0  0  0  0  0  0  0  0  0
   -3.7144   -1.8222    2.9863 O   0  0  0  0  0  0  0  0  0  0  0  0
   -6.1446   -0.8661   -1.0128 O   0  0  0  0  0  0  0  0  0  0  0  0
    3.2759    0.3624   -3.1483 O   0  0  0  0  0  0  0  0  0  0  0  0
    3.9461   -2.0176   -4.4774 O   0  0  0  0  0  0  0  0  0  0  0  0
    1.2441    0.9150    2.7117 C   0  0  1  0  0  0  0  0  0  0  0  0
    2.7483    1.1960    2.7301 C   0  0  2  0  0  0  0  0  0  0  0  0
    3.5273   -0.0993    2.9976 C   0  0  1  0  0  0  0  0  0  0  0  0
    3.0915   -1.2527    2.0787 C   0  0  2  0  0  0  0  0  0  0  0  0
    0.4941    4.1644   -0.8199 C   0  0  1  0  0  0  0  0  0  0  0  0
    0.0564    3.7314    0.5931 C   0  0  2  0  0  0  0  0  0  0  0  0
    0.0341    3.1411   -1.8672 C   0  0  1  0  0  0  0  0  0  0  0  0
   -1.4711    2.8488   -1.7371 C   0  0  2  0  0  0  0  0  0  0  0  0
    1.5503   -1.3630    2.0449 C   0  0  1  0  0  0  0  0  0  0  0  0
    0.4247    2.1572    2.3325 C   0  0  0  0  0  0  0  0  0  0  0  0
   -1.8210    2.5303   -0.2753 C   0  0  2  0  0  0  0  0  0  0  0  0
   -3.3277    2.4148   -0.0695 C   0  0  0  0  0  0  0  0  0  0  0  0
   -0.0728   -2.1439    0.5479 C   0  0  0  0  0  0  0  0  0  0  0  0
   -0.2931   -1.9373   -0.7654 C   0  0  0  0  0  0  0  0  0  0  0  0
   -1.2427   -2.1009    1.4746 C   0  0  0  0  0  0  0  0  0  0  0  0
   -2.5550   -1.7746    0.8742 C   0  0  0  0  0  0  0  0  0  0  0  0
    0.8167   -1.9449   -1.7344 C   0  0  0  0  0  0  0  0  0  0  0  0
   -2.6123   -1.5813   -0.5083 C   0  0  0  0  0  0  0  0  0  0  0  0
   -3.7322   -1.6593    1.6294 C   0  0  0  0  0  0  0  0  0  0  0  0
   -3.8262   -1.2774   -1.1294 C   0  0  0  0  0  0  0  0  0  0  0  0
    1.5279   -0.7658   -2.0181 C   0  0  0  0  0  0  0  0  0  0  0  0
    1.1923   -3.1385   -2.3685 C   0  0  0  0  0  0  0  0  0  0  0  0
   -4.9502   -1.3649    1.0104 C   0  0  0  0  0  0  0  0  0  0  0  0
   -4.9831   -1.1727   -0.3664 C   0  0  0  0  0  0  0  0  0  0  0  0
    2.5846   -0.7930   -2.9218 C   0  0  0  0  0  0  0  0  0  0  0  0
    2.2566   -3.1565   -3.2748 C   0  0  0  0  0  0  0  0  0  0  0  0
    2.9386   -1.9802   -3.5562 C   0  0  0  0  0  0  0  0  0  0  0  0
    2.6057    2.9807    3.5820 H   0  0  0  0  0  0  0  0  0  0  0  0
    5.1919    0.8839    3.4335 H   0  0  0  0  0  0  0  0  0  0  0  0
    4.6530   -2.3919    2.5387 H   0  0  0  0  0  0  0  0  0  0  0  0
    0.1964    6.1093   -0.5079 H   0  0  0  0  0  0  0  0  0  0  0  0
    1.2673    3.8321   -3.2610 H   0  0  0  0  0  0  0  0  0  0  0  0
   -1.6015    1.9639   -3.5008 H   0  0  0  0  0  0  0  0  0  0  0  0
   -2.9099   -2.0201    3.4239 H   0  0  0  0  0  0  0  0  0  0  0  0
   -6.1449   -0.7406   -1.9413 H   0  0  0  0  0  0  0  0  0  0  0  0
    3.0235    1.1525   -2.7124 H   0  0  0  0  0  0  0  0  0  0  0  0
    4.4210   -1.2367   -4.6843 H   0  0  0  0  0  0  0  0  0  0  0  0
    0.9748    0.6077    3.7006 H   0  0  0  0  0  0  0  0  0  0  0  0
    3.0096    1.5929    1.7714 H   0  0  0  0  0  0  0  0  0  0  0  0
    3.3126   -0.4094    3.9990 H   0  0  0  0  0  0  0  0  0  0  0  0
    3.4286   -1.0536    1.0829 H   0  0  0  0  0  0  0  0  0  0  0  0
    1.5620    4.2309   -0.8199 H   0  0  0  0  0  0  0  0  0  0  0  0
    0.3061    4.4899    1.3053 H   0  0  0  0  0  0  0  0  0  0  0  0
    0.5645    2.2262   -1.7043 H   0  0  0  0  0  0  0  0  0  0  0  0
   -2.0235    3.7132   -2.0414 H   0  0  0  0  0  0  0  0  0  0  0  0
    1.1786   -1.6647    3.0019 H   0  0  0  0  0  0  0  0  0  0  0  0
   -0.6185    1.9252    2.3853 H   0  0  0  0  0  0  0  0  0  0  0  0
    0.6501    2.9522    3.0123 H   0  0  0  0  0  0  0  0  0  0  0  0
   -1.3365    1.6012   -0.0585 H   0  0  0  0  0  0  0  0  0  0  0  0
   -3.7910    3.3534   -0.2915 H   0  0  0  0  0  0  0  0  0  0  0  0
   -3.5295    2.1491    0.9472 H   0  0  0  0  0  0  0  0  0  0  0  0
   -3.7198    1.6609   -0.7197 H   0  0  0  0  0  0  0  0  0  0  0  0
   -3.8637   -1.1313   -2.1503 H   0  0  0  0  0  0  0  0  0  0  0  0
    1.2660    0.1191   -1.5561 H   0  0  0  0  0  0  0  0  0  0  0  0
    0.6789   -4.0101   -2.1644 H   0  0  0  0  0  0  0  0  0  0  0  0
   -5.8151   -1.2910    1.5686 H   0  0  0  0  0  0  0  0  0  0  0  0
    2.5339   -4.0391   -3.7320 H   0  0  0  0  0  0  0  0  0  0  0  0
  1 17  1  0  0  0  0
  1 25  1  0  0  0  0
  2 22  1  0  0  0  0
  2 26  1  0  0  0  0
  3 22  1  0  0  0  0
  3 27  1  0  0  0  0
  4 18  1  0  0  0  0
  4 44  1  0  0  0  0
  5 19  1  0  0  0  0
  5 45  1  0  0  0  0
  6 25  1  0  0  0  0
  6 29  1  0  0  0  0
  7 20  1  0  0  0  0
  7 46  1  0  0  0  0
  8 21  1  0  0  0  0
  8 47  1  0  0  0  0
  9 23  1  0  0  0  0
  9 48  1  0  0  0  0
 10 24  1  0  0  0  0
 10 49  1  0  0  0  0
 11 30  1  0  0  0  0
 11 34  1  0  0  0  0
 12 31  2  0  0  0  0
 13 35  1  0  0  0  0
 13 50  1  0  0  0  0
 14 40  1  0  0  0  0
 14 51  1  0  0  0  0
 15 41  1  0  0  0  0
 15 52  1  0  0  0  0
 16 43  1  0  0  0  0
 16 53  1  0  0  0  0
 17 18  1  0  0  0  0
 17 26  1  0  0  0  0
 17 54  1  1  0  0  0
 18 19  1  0  0  0  0
 18 55  1  6  0  0  0
 19 20  1  0  0  0  0
 19 56  1  1  0  0  0
 20 25  1  0  0  0  0
 20 57  1  6  0  0  0
 21 22  1  0  0  0  0
 21 23  1  0  0  0  0
 21 58  1  6  0  0  0
 22 59  1  1  0  0  0
 23 24  1  0  0  0  0
 23 60  1  1  0  0  0
 24 27  1  0  0  0  0
 24 61  1  6  0  0  0
 25 62  1  1  0  0  0
 26 63  1  0  0  0  0
 26 64  1  0  0  0  0
 27 28  1  0  0  0  0
 27 65  1  1  0  0  0
 28 66  1  0  0  0  0
 28 67  1  0  0  0  0
 28 68  1  0  0  0  0
 29 30  2  0  0  0  0
 29 31  1  0  0  0  0
 30 33  1  0  0  0  0
 31 32  1  0  0  0  0
 32 34  1  0  0  0  0
 32 35  2  0  0  0  0
 33 37  2  0  0  0  0
 33 38  1  0  0  0  0
 34 36  2  0  0  0  0
 35 39  1  0  0  0  0
 36 40  1  0  0  0  0
 36 69  1  0  0  0  0
 37 41  1  0  0  0  0
 37 70  1  0  0  0  0
 38 42  2  0  0  0  0
 38 71  1  0  0  0  0
 39 40  2  0  0  0  0
 39 72  1  0  0  0  0
 41 43  2  0  0  0  0
 42 43  1  0  0  0  0
 42 73  1  0  0  0  0
M  END
>  <PUBCHEM_COMPOUND_CID>
5280805

>  <PUBCHEM_CONFORMER_RMSD>
1

>  <PUBCHEM_CONFORMER_DIVERSEORDER>
2
131
304
489
214
100
361
262
187
266
175
227
155
104
438
41
480
336
281
477
416
321
305
347
241
149
211
389
82
464
393
111
470
206
362
424
326
327
340
418
348
456
222
465
335
441
398
7
3
351
487
112
368
48
146
466
283
315
383
447
385
433
314
115
188
400
274
95
33
437
479
26
404
473
427
14
145
271
237
449
178
332
346
275
350
379
43
325
371
282
425
380
245
455
192
109
414
320
323
4
312
343
162
290
277
317
15
483
413
128
364
226
247
298
419
74
334
458
460
260
401
47
486
161
342
1
110
378
344
318
355
461
357
204
93
57
265
235
101
299
432
5
469
388
123
140
148
242
345
215
257
278
203
122
478
205
89
157
373
150
309
164
273
359
94
221
249
297
370
440
207
97
73
243
375
55
189
269
251
68
78
67
303
300
444
294
99
360
382
285
61
253
92
165
296
258
431
45
229
21
386
44
256
369
154
468
208
34
224
352
196
459
174
202
267
139
384
381
201
20
390
87
142
126
216
231
445
270
163
58
454
80
363
410
46
301
66
197
472
319
27
436
374
50
324
366
293
276
17
12
184
485
435
415
81
76
474
307
177
354
28
107
261
212
302
286
181
287
353
63
18
244
53
367
135
125
84
411
102
488
288
417
42
313
339
228
259
166
402
171
219
333
36
170
119
108
268
51
137
239
182
218
356
310
186
79
316
341
233
209
467
72
403
236
106
405
331
6
116
391
113
422
217
35
8
91
387
156
279
311
117
255
133
322
59
289
194
172
392
428
118
56
330
225
32
114
70
358
144
250
52
130
134
105
49
179
439
37
490
85
29
263
434
38
280
210
248
120
158
62
193
190
442
396
13
183
9
11
160
471
394
406
349
138
124
448
408
450
429
129
232
191
291
463
103
90
199
264
121
284
475
407
83
64
292
54
69
141
399
65
136
31
98
86
40
75
397
238
19
39
223
77
143
338
337
240
443
484
376
127
423
10
453
426
96
395
272
430
24
412
230
482
168
88
246
481
409
195
220
132
198
377
185
372
176
452
153
22
252
254
147
173
200
152
462
328
30
308
476
23
25
16
295
169
446
234
159
213
421
71
306
451
420
151
60
180
329
457
365
167

>  <PUBCHEM_MMFF94_PARTIAL_CHARGES>
57
1 -0.56
10 -0.68
11 -0.16
12 -0.57
13 -0.53
14 -0.53
15 -0.53
16 -0.53
17 0.28
18 0.28
19 0.28
2 -0.56
20 0.28
21 0.28
22 0.56
23 0.28
24 0.28
25 0.56
26 0.28
27 0.28
29 0.09
3 -0.56
30 0.05
31 0.47
32 0.09
33 0.03
34 0.08
35 0.08
36 -0.15
37 -0.15
38 -0.15
39 -0.15
4 -0.68
40 0.08
41 0.08
42 -0.15
43 0.08
5 -0.68
59 0.4
6 -0.36
60 0.4
61 0.4
62 0.4
63 0.4
64 0.4
65 0.15
66 0.15
67 0.15
68 0.15
69 0.15
7 -0.68
70 0.45
71 0.45
72 0.45
73 0.45
8 -0.68
9 -0.68

>  <PUBCHEM_EFFECTIVE_ROTOR_COUNT>
8.4

>  <PUBCHEM_PHARMACOPHORE_FEATURES>
27
1 1 acceptor
1 10 acceptor
1 10 donor
1 11 acceptor
1 12 acceptor
1 13 donor
1 14 donor
1 15 donor
1 16 donor
1 2 acceptor
1 3 acceptor
1 4 acceptor
1 4 donor
1 5 acceptor
1 5 donor
1 6 acceptor
1 7 acceptor
1 7 donor
1 8 acceptor
1 8 donor
1 9 acceptor
1 9 donor
6 1 17 18 19 20 25 rings
6 11 29 30 31 32 34 rings
6 3 21 22 23 24 27 rings
6 32 34 35 36 39 40 rings
6 33 37 38 41 42 43 rings

>  <PUBCHEM_HEAVY_ATOM_COUNT>
43

>  <PUBCHEM_ATOM_DEF_STEREO_COUNT>
10

>  <PUBCHEM_ATOM_UDEF_STEREO_COUNT>
0

>  <PUBCHEM_BOND_DEF_STEREO_COUNT>
0

>  <PUBCHEM_BOND_UDEF_STEREO_COUNT>
0

>  <PUBCHEM_ISOTOPIC_ATOM_COUNT>
0

>  <PUBCHEM_COMPONENT_COUNT>
1

>  <PUBCHEM_CACTVS_TAUTO_COUNT>
162

>  <PUBCHEM_CONFORMER_ID>
0050942500000002

>  <PUBCHEM_MMFF94_ENERGY>
136.1966

>  <PUBCHEM_FEATURE_SELFOVERLAP>
137.204

>  <PUBCHEM_SHAPE_FINGERPRINT>
10032420 55 16618722691837029128
11578080 2 17702109058163013238
11763715 3 18261095383836030923
12128747 34 17830706804582719010
12156800 1 18264493892630091420
12539773 59 16541837734788209111
14114207 22 16917072187542919862
15276724 80 18195220408896355960
16114785 44 17475453695688661424
18603816 31 14404615602411670896
20764821 26 18041559114480362497
25223398 141 17178842541083293593
25265897 201 16407044163570150168
3493558 16 16975116350754414899
35225 105 17325147011154151441
469060 322 17471915372670447110
46939830 39 16734080423712847612
57527358 35 16309142101817992987

>  <PUBCHEM_SHAPE_MULTIPOLES>
791.01
7.43
5.65
4.99
6.28
5.02
0.53
-4.78
-2.04
-1.61
4.22
-5.55
-0.17
4.43

>  <PUBCHEM_SHAPE_SELFOVERLAP>
1727.285

>  <PUBCHEM_SHAPE_VOLUME>
423.3

>  <PUBCHEM_COORDINATE_TYPE>
2
5
10

>  <Energy>
252.893

$$$$
