84677
 OpenBabel09212612393D

 28 29  0  0  0  0  0  0  0  0999 V2000
   -1.4820   -3.2375   -0.0049 Cl  0  0  0  0  0  0  0  0  0  0  0  0
    1.4424   -3.2619    0.0038 Cl  0  0  0  0  0  0  0  0  0  0  0  0
    4.8911    1.8458   -0.0284 O   0  0  0  0  0  0  0  0  0  0  0  0
   -4.8672    1.8877    0.0265 O   0  0  0  0  0  0  0  0  0  0  0  0
   -0.0004   -0.9500   -0.0014 C   0  0  0  0  0  0  0  0  0  0  0  0
    1.2891   -0.2177    0.0022 C   0  0  0  0  0  0  0  0  0  0  0  0
   -1.2792   -0.1996   -0.0049 C   0  0  0  0  0  0  0  0  0  0  0  0
    1.8980    0.1337    1.2153 C   0  0  0  0  0  0  0  0  0  0  0  0
   -1.8839    0.1594   -1.2180 C   0  0  0  0  0  0  0  0  0  0  0  0
    1.9037    0.1380   -1.2060 C   0  0  0  0  0  0  0  0  0  0  0  0
   -1.8912    0.1601    1.2034 C   0  0  0  0  0  0  0  0  0  0  0  0
    3.1105    0.8278    1.2210 C   0  0  0  0  0  0  0  0  0  0  0  0
   -3.0913    0.8619   -1.2239 C   0  0  0  0  0  0  0  0  0  0  0  0
    3.1149    0.8317   -1.1985 C   0  0  0  0  0  0  0  0  0  0  0  0
   -3.0972    0.8626    1.1963 C   0  0  0  0  0  0  0  0  0  0  0  0
    3.7081    1.1696    0.0121 C   0  0  0  0  0  0  0  0  0  0  0  0
   -3.6874    1.2055   -0.0144 C   0  0  0  0  0  0  0  0  0  0  0  0
   -0.0116   -2.3037   -0.0010 C   0  0  0  0  0  0  0  0  0  0  0  0
    5.3189    2.0896    0.7688 H   0  0  0  0  0  0  0  0  0  0  0  0
   -5.2933    2.1351   -0.7705 H   0  0  0  0  0  0  0  0  0  0  0  0
    1.4483   -0.1216    2.1083 H   0  0  0  0  0  0  0  0  0  0  0  0
   -1.4347   -0.0967   -2.1111 H   0  0  0  0  0  0  0  0  0  0  0  0
    1.4598   -0.1135   -2.1031 H   0  0  0  0  0  0  0  0  0  0  0  0
   -1.4492   -0.0951    2.1004 H   0  0  0  0  0  0  0  0  0  0  0  0
    3.5589    1.0847    2.1143 H   0  0  0  0  0  0  0  0  0  0  0  0
   -3.5371    1.1237   -2.1170 H   0  0  0  0  0  0  0  0  0  0  0  0
    3.5681    1.0925   -2.0882 H   0  0  0  0  0  0  0  0  0  0  0  0
   -3.5486    1.1263    2.0861 H   0  0  0  0  0  0  0  0  0  0  0  0
  1 18  1  0  0  0  0
  2 18  1  0  0  0  0
  3 16  1  0  0  0  0
  3 19  1  0  0  0  0
  4 17  1  0  0  0  0
  4 20  1  0  0  0  0
  5  6  1  0  0  0  0
  5  7  1  0  0  0  0
  5 18  2  0  0  0  0
  6  8  2  0  0  0  0
  6 10  1  0  0  0  0
  7  9  2  0  0  0  0
  7 11  1  0  0  0  0
  8 12  1  0  0  0  0
  8 21  1  0  0  0  0
  9 13  1  0  0  0  0
  9 22  1  0  0  0  0
 10 14  2  0  0  0  0
 10 23  1  0  0  0  0
 11 15  2  0  0  0  0
 11 24  1  0  0  0  0
 12 16  2  0  0  0  0
 12 25  1  0  0  0  0
 13 17  2  0  0  0  0
 13 26  1  0  0  0  0
 14 16  1  0  0  0  0
 14 27  1  0  0  0  0
 15 17  1  0  0  0  0
 15 28  1  0  0  0  0
M  END
>  <PUBCHEM_COMPOUND_CID>
84677

>  <PUBCHEM_CONFORMER_RMSD>
0.6

>  <PUBCHEM_CONFORMER_DIVERSEORDER>
1

>  <PUBCHEM_MMFF94_PARTIAL_CHARGES>
28
1 -0.14
10 -0.15
11 -0.15
12 -0.15
13 -0.15
14 -0.15
15 -0.15
16 0.08
17 0.08
18 0.28
19 0.15
2 -0.14
20 0.15
21 0.15
22 0.15
23 0.15
24 0.15
25 0.15
26 0.15
27 0.45
28 0.45
3 -0.53
4 -0.53
5 -0.06
6 0.03
7 0.03
8 -0.15
9 -0.15

>  <PUBCHEM_EFFECTIVE_ROTOR_COUNT>
2

>  <PUBCHEM_PHARMACOPHORE_FEATURES>
4
1 3 donor
1 4 donor
6 6 8 10 12 14 16 rings
6 7 9 11 13 15 17 rings

>  <PUBCHEM_HEAVY_ATOM_COUNT>
18

>  <PUBCHEM_ATOM_DEF_STEREO_COUNT>
0

>  <PUBCHEM_ATOM_UDEF_STEREO_COUNT>
0

>  <PUBCHEM_BOND_DEF_STEREO_COUNT>
0

>  <PUBCHEM_BOND_UDEF_STEREO_COUNT>
0

>  <PUBCHEM_ISOTOPIC_ATOM_COUNT>
0

>  <PUBCHEM_COMPONENT_COUNT>
1

>  <PUBCHEM_CACTVS_TAUTO_COUNT>
3

>  <PUBCHEM_CONFORMER_ID>
00014AC500000001

>  <PUBCHEM_MMFF94_ENERGY>
58.3021

>  <PUBCHEM_FEATURE_SELFOVERLAP>
20.298

>  <PUBCHEM_SHAPE_FINGERPRINT>
10498660 4 18343300357880487793
10618630 7 9295292746111527184
11725454 13 16735197502294577431
12173636 292 18267583696323714420
12251169 10 15719393940439645836
12363563 72 9583519819359606676
12500047 106 18341048644492960938
12633257 1 15647059286651627885
12707595 3 10375864165017721245
12730499 353 18339091389194008649
12788726 201 17830745609210992918
12892183 10 15647042729563199337
13134695 92 17685770229338012727
13140716 1 18335700525125100482
13764800 53 18341622563154735051
13965767 371 18114732768401934684
14123255 52 18410576184180299749
14787075 74 17916019247811203011
15309172 13 18334577944842296893
15342168 16 18408041784588591941
16752209 62 18122046865678737146
1741750 31 18411417353825622458
1813 80 17410499779758408190
18186145 218 18272664428113338388
18222031 100 11458430123971056601
19765921 60 18130216086885829555
204376 136 18409166623268883313
20510252 161 18053383485457524594
20600515 1 17038346335163258858
20671657 1 18266744584210585871
20671657 53 13542469760905158672
20871998 22 8790877471622132743
21499 59 18412260623362040037
21524375 3 18260264174350554275
21731228 192 18040997366674419018
22079108 93 18129957753509258817
2255824 54 18125438601420914711
23402539 116 18201995547600752332
23419403 2 17395631217281071602
23557571 272 18127419071175922612
23559900 14 16516815727969010891
25 1 17988934357306844024
283562 15 18049716618379400490
3082319 5 15698002924541433536
350125 39 18410020939393491467
4028521 119 17775284954300256625
4340502 62 18411704253947512147
458136 41 18339089189759685995
474 4 18342175561611207785
495365 180 18192144894120231501
59755656 520 18411980277729944831
633830 44 18059022687196180797
6442390 28 18340504347213884347
7364860 26 18196651787444601870
7808743 9 18336548338742282716
81228 2 17905613550669371626
84936 182 18128533765091188065

>  <PUBCHEM_SHAPE_MULTIPOLES>
362.43
7.5
2.84
1.27
0.24
3.51
0
-7.05
0
-0.1
0
0.01
-0.35
0

>  <PUBCHEM_SHAPE_SELFOVERLAP>
766.711

>  <PUBCHEM_SHAPE_VOLUME>
204.4

>  <PUBCHEM_COORDINATE_TYPE>
2
5
10

>  <Energy>
35.0876

$$$$
