36982
 OpenBabel09212612403D

 22 23  0  0  0  0  0  0  0  0999 V2000
   -1.1351    2.5407    0.0013 Cl  0  0  0  0  0  0  0  0  0  0  0  0
    4.9406   -0.0441   -0.0008 Cl  0  0  0  0  0  0  0  0  0  0  0  0
    0.4188   -0.1660    0.0002 C   0  0  0  0  0  0  0  0  0  0  0  0
   -1.0473   -0.2037    0.0003 C   0  0  0  0  0  0  0  0  0  0  0  0
    1.1330   -0.1484   -1.2083 C   0  0  0  0  0  0  0  0  0  0  0  0
    1.1334   -0.1513    1.2085 C   0  0  0  0  0  0  0  0  0  0  0  0
   -1.8392    0.9596    0.0007 C   0  0  0  0  0  0  0  0  0  0  0  0
   -1.6980   -1.4508   -0.0004 C   0  0  0  0  0  0  0  0  0  0  0  0
    2.5293   -0.1106   -1.2093 C   0  0  0  0  0  0  0  0  0  0  0  0
    2.5298   -0.1134    1.2088 C   0  0  0  0  0  0  0  0  0  0  0  0
   -3.2353    0.8727    0.0007 C   0  0  0  0  0  0  0  0  0  0  0  0
   -3.0920   -1.5352   -0.0005 C   0  0  0  0  0  0  0  0  0  0  0  0
    3.2209   -0.0925   -0.0002 C   0  0  0  0  0  0  0  0  0  0  0  0
   -3.8597   -0.3738    0.0002 C   0  0  0  0  0  0  0  0  0  0  0  0
    0.6215   -0.1635   -2.1045 H   0  0  0  0  0  0  0  0  0  0  0  0
    0.6223   -0.1687    2.1049 H   0  0  0  0  0  0  0  0  0  0  0  0
   -1.1366   -2.3167   -0.0009 H   0  0  0  0  0  0  0  0  0  0  0  0
    3.0465   -0.0961   -2.1022 H   0  0  0  0  0  0  0  0  0  0  0  0
    3.0474   -0.1010    2.1015 H   0  0  0  0  0  0  0  0  0  0  0  0
   -3.8046    1.7335    0.0010 H   0  0  0  0  0  0  0  0  0  0  0  0
   -3.5530   -2.4585   -0.0010 H   0  0  0  0  0  0  0  0  0  0  0  0
   -4.8898   -0.4355    0.0003 H   0  0  0  0  0  0  0  0  0  0  0  0
  1  7  1  0  0  0  0
  2 13  1  0  0  0  0
  3  4  1  0  0  0  0
  3  5  2  0  0  0  0
  3  6  1  0  0  0  0
  4  7  1  0  0  0  0
  4  8  2  0  0  0  0
  5  9  1  0  0  0  0
  5 15  1  0  0  0  0
  6 10  2  0  0  0  0
  6 16  1  0  0  0  0
  7 11  2  0  0  0  0
  8 12  1  0  0  0  0
  8 17  1  0  0  0  0
  9 13  2  0  0  0  0
  9 18  1  0  0  0  0
 10 13  1  0  0  0  0
 10 19  1  0  0  0  0
 11 14  1  0  0  0  0
 11 20  1  0  0  0  0
 12 14  2  0  0  0  0
 12 21  1  0  0  0  0
 14 22  1  0  0  0  0
M  END
>  <PUBCHEM_COMPOUND_CID>
36982

>  <PUBCHEM_CONFORMER_RMSD>
0.4

>  <PUBCHEM_CONFORMER_DIVERSEORDER>
1
2
3

>  <PUBCHEM_MMFF94_PARTIAL_CHARGES>
20
1 -0.18
10 -0.15
11 -0.15
12 -0.15
13 0.18
14 -0.15
15 0.15
16 0.15
17 0.15
18 0.15
19 0.15
2 -0.18
20 0.15
21 0.15
22 0.15
5 -0.15
6 -0.15
7 0.18
8 -0.15
9 -0.15

>  <PUBCHEM_EFFECTIVE_ROTOR_COUNT>
1

>  <PUBCHEM_PHARMACOPHORE_FEATURES>
2
6 3 5 6 9 10 13 rings
6 4 7 8 11 12 14 rings

>  <PUBCHEM_HEAVY_ATOM_COUNT>
14

>  <PUBCHEM_ATOM_DEF_STEREO_COUNT>
0

>  <PUBCHEM_ATOM_UDEF_STEREO_COUNT>
0

>  <PUBCHEM_BOND_DEF_STEREO_COUNT>
0

>  <PUBCHEM_BOND_UDEF_STEREO_COUNT>
0

>  <PUBCHEM_ISOTOPIC_ATOM_COUNT>
0

>  <PUBCHEM_COMPONENT_COUNT>
1

>  <PUBCHEM_CACTVS_TAUTO_COUNT>
1

>  <PUBCHEM_CONFORMER_ID>
0000907600000001

>  <PUBCHEM_MMFF94_ENERGY>
41.1113

>  <PUBCHEM_FEATURE_SELFOVERLAP>
10.149

>  <PUBCHEM_SHAPE_FINGERPRINT>
10465860 250 18131627864269129930
11471102 20 16056880230377013154
12236239 1 17676487245985103283
124424 183 17846494812183075762
13538477 17 18113896052752995467
13581323 91 18409163303327852178
14993402 34 17240481420576197434
15219456 202 17704076161689782038
15653759 3 18202842158405104234
15775835 57 17894912893048754433
16945 1 18410855434790978629
17844478 74 17704075087905818449
18175812 5 17775281702845943909
18186145 218 16950282944301312886
19049666 15 17701828673959906414
19868273 325 18409449206600532845
200 152 16660360402669484659
20201158 50 17489873725798274870
20279233 1 17703794721051873199
20344682 1 17846780710685918861
20510252 161 18342177704968635289
20645477 70 16271370682142962756
21061003 4 16988842804065307185
22094290 60 18412829075210810948
22802520 49 17843976840055090213
2297311 6 18341907285427258828
23175994 123 16917075455643845328
23402539 116 18412537708686995703
23557571 272 18272657826754197332
23559900 14 18271528585763556438
2748010 2 18268135647351382025
474 4 17169560825052302716
7364860 26 17911238635288343361
77492 1 17676206866225020611
81228 2 18340502062306905801

>  <PUBCHEM_SHAPE_MULTIPOLES>
291.85
7.28
1.57
1.03
4.14
0.84
0
-0.95
0
-1.64
0
0.74
-0.05
0

>  <PUBCHEM_SHAPE_SELFOVERLAP>
615.56

>  <PUBCHEM_SHAPE_VOLUME>
157.3

>  <PUBCHEM_COORDINATE_TYPE>
2
5
10

>  <Energy>
45.0708

$$$$
