10457
 OpenBabel09212612393D

 26 25  0  0  0  0  0  0  0  0999 V2000
   -5.4972   -0.7815   -0.0368 O   0  0  0  0  0  0  0  0  0  0  0  0
    5.5011    0.7565   -0.0396 O   0  0  0  0  0  0  0  0  0  0  0  0
   -4.6195    1.2666    0.0035 O   0  0  0  0  0  0  0  0  0  0  0  0
    4.6007   -1.2800    0.0053 O   0  0  0  0  0  0  0  0  0  0  0  0
   -0.5997   -0.4718    0.0124 C   0  0  0  0  0  0  0  0  0  0  0  0
    0.5969    0.4896    0.0406 C   0  0  0  0  0  0  0  0  0  0  0  0
   -1.9369    0.2776   -0.0162 C   0  0  0  0  0  0  0  0  0  0  0  0
    1.9311   -0.2655    0.0139 C   0  0  0  0  0  0  0  0  0  0  0  0
   -3.1317   -0.6792    0.0164 C   0  0  0  0  0  0  0  0  0  0  0  0
    3.1335    0.6820   -0.0001 C   0  0  0  0  0  0  0  0  0  0  0  0
   -4.4458    0.0601   -0.0078 C   0  0  0  0  0  0  0  0  0  0  0  0
    4.4394   -0.0720   -0.0106 C   0  0  0  0  0  0  0  0  0  0  0  0
   -5.3559   -1.7077   -0.0453 H   0  0  0  0  0  0  0  0  0  0  0  0
    5.3712    1.6844   -0.0517 H   0  0  0  0  0  0  0  0  0  0  0  0
   -0.5680   -1.0889    0.8860 H   0  0  0  0  0  0  0  0  0  0  0  0
   -0.5308   -1.0598   -0.8789 H   0  0  0  0  0  0  0  0  0  0  0  0
    0.5487    1.0772    0.9335 H   0  0  0  0  0  0  0  0  0  0  0  0
    0.5471    1.1101   -0.8296 H   0  0  0  0  0  0  0  0  0  0  0  0
   -1.9864    0.8616   -0.9114 H   0  0  0  0  0  0  0  0  0  0  0  0
   -1.9866    0.8981    0.8541 H   0  0  0  0  0  0  0  0  0  0  0  0
    1.9636   -0.8761   -0.8642 H   0  0  0  0  0  0  0  0  0  0  0  0
    1.9906   -0.8575    0.9032 H   0  0  0  0  0  0  0  0  0  0  0  0
   -3.0811   -1.2653    0.9102 H   0  0  0  0  0  0  0  0  0  0  0  0
   -3.0840   -1.2988   -0.8547 H   0  0  0  0  0  0  0  0  0  0  0  0
    3.0974    1.3005    0.8722 H   0  0  0  0  0  0  0  0  0  0  0  0
    3.0823    1.2717   -0.8915 H   0  0  0  0  0  0  0  0  0  0  0  0
  1 11  1  0  0  0  0
  1 13  1  0  0  0  0
  2 12  1  0  0  0  0
  2 14  1  0  0  0  0
  3 11  2  0  0  0  0
  4 12  2  0  0  0  0
  5  6  1  0  0  0  0
  5  7  1  0  0  0  0
  5 15  1  0  0  0  0
  5 16  1  0  0  0  0
  6  8  1  0  0  0  0
  6 17  1  0  0  0  0
  6 18  1  0  0  0  0
  7  9  1  0  0  0  0
  7 19  1  0  0  0  0
  7 20  1  0  0  0  0
  8 10  1  0  0  0  0
  8 21  1  0  0  0  0
  8 22  1  0  0  0  0
  9 11  1  0  0  0  0
  9 23  1  0  0  0  0
  9 24  1  0  0  0  0
 10 12  1  0  0  0  0
 10 25  1  0  0  0  0
 10 26  1  0  0  0  0
M  END
>  <PUBCHEM_COMPOUND_CID>
10457

>  <PUBCHEM_CONFORMER_RMSD>
0.8

>  <PUBCHEM_CONFORMER_DIVERSEORDER>
1
51
13
17
50
20
49
7
6
43
16
19
35
37
34
8
4
41
10
45
31
42
9
53
12
52
3
36
32
11
47
22
29
15
38
14
28
26
33
48
2
18
39
30
24
21
25
5
40
44
46
23
27

>  <PUBCHEM_MMFF94_PARTIAL_CHARGES>
10
1 -0.65
10 0.06
11 0.66
12 0.66
2 -0.65
25 0.5
26 0.5
3 -0.57
4 -0.57
9 0.06

>  <PUBCHEM_EFFECTIVE_ROTOR_COUNT>
7

>  <PUBCHEM_PHARMACOPHORE_FEATURES>
8
1 1 acceptor
1 2 acceptor
1 3 acceptor
1 4 acceptor
3 1 3 11 anion
3 2 4 12 anion
3 5 7 9 hydrophobe
3 6 8 10 hydrophobe

>  <PUBCHEM_HEAVY_ATOM_COUNT>
12

>  <PUBCHEM_ATOM_DEF_STEREO_COUNT>
0

>  <PUBCHEM_ATOM_UDEF_STEREO_COUNT>
0

>  <PUBCHEM_BOND_DEF_STEREO_COUNT>
0

>  <PUBCHEM_BOND_UDEF_STEREO_COUNT>
0

>  <PUBCHEM_ISOTOPIC_ATOM_COUNT>
0

>  <PUBCHEM_COMPONENT_COUNT>
1

>  <PUBCHEM_CACTVS_TAUTO_COUNT>
1

>  <PUBCHEM_CONFORMER_ID>
000028D900000001

>  <PUBCHEM_MMFF94_ENERGY>
5.819

>  <PUBCHEM_FEATURE_SELFOVERLAP>
40.713

>  <PUBCHEM_SHAPE_FINGERPRINT>
14123238 8 18410855468723371212
1420 363 17894919542196153683
14251718 22 18410855485929633691
15242433 33 18412826897868347694
15501527 16 18339645547418414313
17834072 33 18343581871300244886
17834076 25 18410012147605108994
187816 3 15841555184349649219
20645477 70 18340207389201811990
20719005 15 18410855464428403843
20767249 13 15626223515540198054
22485316 2 18413669123590536230
23402539 116 18273208695106845181
366044 4 18259984889886545955
42788 4 18410856564161623172
522135 26 18407760331387034066
57483677 66 18412823599043502359

>  <PUBCHEM_SHAPE_MULTIPOLES>
223.48
13.67
1.02
0.58
0.15
0
0
0.06
0.16
-0.01
0
0
0
-0.02

>  <PUBCHEM_SHAPE_SELFOVERLAP>
416.072

>  <PUBCHEM_SHAPE_VOLUME>
139.1

>  <PUBCHEM_COORDINATE_TYPE>
2
5
10

>  <Energy>
-51.7835

$$$$
