246598
 OpenBabel09212612393D

 26 27  0  0  0  0  0  0  0  0999 V2000
   -1.6653    0.0952    2.5725 Cl  0  0  0  0  0  0  0  0  0  0  0  0
    5.2505    1.4259    0.0141 Cl  0  0  0  0  0  0  0  0  0  0  0  0
   -2.1108   -2.8604   -0.1942 Cl  0  0  0  0  0  0  0  0  0  0  0  0
    0.7797   -3.2989   -0.1028 Cl  0  0  0  0  0  0  0  0  0  0  0  0
   -0.3211   -0.8067   -0.1274 C   0  0  0  0  0  0  0  0  0  0  0  0
    1.0606   -0.2633   -0.0945 C   0  0  0  0  0  0  0  0  0  0  0  0
   -1.4881    0.1167   -0.1718 C   0  0  0  0  0  0  0  0  0  0  0  0
    1.6944   -0.0121    1.1309 C   0  0  0  0  0  0  0  0  0  0  0  0
    1.7431    0.0102   -1.2870 C   0  0  0  0  0  0  0  0  0  0  0  0
   -2.1435    0.5784    0.9831 C   0  0  0  0  0  0  0  0  0  0  0  0
   -1.9581    0.5375   -1.4283 C   0  0  0  0  0  0  0  0  0  0  0  0
    2.9882    0.5129    1.1647 C   0  0  0  0  0  0  0  0  0  0  0  0
    3.0403    0.5309   -1.2533 C   0  0  0  0  0  0  0  0  0  0  0  0
   -3.2341    1.4472    0.8777 C   0  0  0  0  0  0  0  0  0  0  0  0
   -3.0535    1.3980   -1.5275 C   0  0  0  0  0  0  0  0  0  0  0  0
    3.6556    0.7818   -0.0275 C   0  0  0  0  0  0  0  0  0  0  0  0
   -3.6887    1.8552   -0.3756 C   0  0  0  0  0  0  0  0  0  0  0  0
   -0.5236   -2.1453   -0.1341 C   0  0  0  0  0  0  0  0  0  0  0  0
    1.2013   -0.2166    2.0141 H   0  0  0  0  0  0  0  0  0  0  0  0
    1.2866   -0.1735   -2.1941 H   0  0  0  0  0  0  0  0  0  0  0  0
   -1.4889    0.2070   -2.2860 H   0  0  0  0  0  0  0  0  0  0  0  0
    3.4476    0.7007    2.0694 H   0  0  0  0  0  0  0  0  0  0  0  0
    3.5412    0.7291   -2.1336 H   0  0  0  0  0  0  0  0  0  0  0  0
   -3.7044    1.7876    1.7309 H   0  0  0  0  0  0  0  0  0  0  0  0
   -3.3927    1.6956   -2.4557 H   0  0  0  0  0  0  0  0  0  0  0  0
   -4.4949    2.4952   -0.4496 H   0  0  0  0  0  0  0  0  0  0  0  0
  1 10  1  0  0  0  0
  2 16  1  0  0  0  0
  3 18  1  0  0  0  0
  4 18  1  0  0  0  0
  5  6  1  0  0  0  0
  5  7  1  0  0  0  0
  5 18  2  0  0  0  0
  6  8  2  0  0  0  0
  6  9  1  0  0  0  0
  7 10  1  0  0  0  0
  7 11  2  0  0  0  0
  8 12  1  0  0  0  0
  8 19  1  0  0  0  0
  9 13  2  0  0  0  0
  9 20  1  0  0  0  0
 10 14  2  0  0  0  0
 11 15  1  0  0  0  0
 11 21  1  0  0  0  0
 12 16  2  0  0  0  0
 12 22  1  0  0  0  0
 13 16  1  0  0  0  0
 13 23  1  0  0  0  0
 14 17  1  0  0  0  0
 14 24  1  0  0  0  0
 15 17  2  0  0  0  0
 15 25  1  0  0  0  0
 17 26  1  0  0  0  0
M  END
>  <PUBCHEM_COMPOUND_CID>
246598

>  <PUBCHEM_CONFORMER_RMSD>
0.6

>  <PUBCHEM_CONFORMER_DIVERSEORDER>
1
2

>  <PUBCHEM_MMFF94_PARTIAL_CHARGES>
26
1 -0.18
10 0.18
11 -0.15
12 -0.15
13 -0.15
14 -0.15
15 -0.15
16 0.18
17 -0.15
18 0.28
19 0.15
2 -0.18
20 0.15
21 0.15
22 0.15
23 0.15
24 0.15
25 0.15
26 0.15
3 -0.14
4 -0.14
5 -0.06
6 0.03
7 0.03
8 -0.15
9 -0.15

>  <PUBCHEM_EFFECTIVE_ROTOR_COUNT>
2

>  <PUBCHEM_PHARMACOPHORE_FEATURES>
2
6 6 8 9 12 13 16 rings
6 7 10 11 14 15 17 rings

>  <PUBCHEM_HEAVY_ATOM_COUNT>
18

>  <PUBCHEM_ATOM_DEF_STEREO_COUNT>
0

>  <PUBCHEM_ATOM_UDEF_STEREO_COUNT>
0

>  <PUBCHEM_BOND_DEF_STEREO_COUNT>
0

>  <PUBCHEM_BOND_UDEF_STEREO_COUNT>
0

>  <PUBCHEM_ISOTOPIC_ATOM_COUNT>
0

>  <PUBCHEM_COMPONENT_COUNT>
1

>  <PUBCHEM_CACTVS_TAUTO_COUNT>
1

>  <PUBCHEM_CONFORMER_ID>
0003C34600000001

>  <PUBCHEM_MMFF94_ENERGY>
58.0635

>  <PUBCHEM_FEATURE_SELFOVERLAP>
10.149

>  <PUBCHEM_SHAPE_FINGERPRINT>
10165383 225 17979116792049091573
11582403 64 16880721143322374141
11725454 13 16952502759905047597
12173636 292 18342749494006865069
12251169 10 15647059256713255992
12500047 106 18340200890942127622
12707595 3 10375576092976564308
13134695 92 17469033359273168847
13140716 1 18336828585210614778
13296908 3 9223225217803544700
13583140 156 17022896873921973293
13675066 3 17603868910303484300
13681431 1 17547014022296990663
13764800 53 18271814544232307003
14614273 12 18410298051025956951
14787075 74 17846213427817189105
14817 1 14254276842760857667
15309172 13 18335424543041776405
15775835 57 18261106374624783408
15852999 172 18272929419032155414
16752209 62 18194102226133185222
16945 1 18059558192735562607
17357779 13 17770766108008393103
1741750 31 18411134753625482988
18186145 218 18272381832229252452
18219364 16 18412272752139135881
18981168 100 18339095803719087015
19765921 60 17988352664300707451
200 152 16226885717177915787
204376 136 18409446972869307876
20510252 161 18126564750214041666
20600515 1 17254519091533580027
20645477 56 18339088193522263708
21524375 3 18187363220671351879
21756936 100 17489325060953313120
22079108 93 18130801048879017497
22907989 373 18126564763093377012
23402539 116 18125715940143653230
23402655 69 16343429401388988512
23419403 2 13607282673017658955
23557571 272 18127699429540335596
23559900 14 18202289087746914878
25 1 17917718959074156512
27216 239 18114185267219062601
283562 15 18194958767139880203
3082319 5 15626222386038028980
4028521 119 17561082471084890617
4340502 62 18199485302756917627
469060 322 18263652938561179011
474 4 18202001014651099448
495365 180 17975406924364762797
5845 1 17268365224372172615
59755656 520 18059309694169799019
633830 44 17988092071080813732
7097593 13 15864069858297937320
7970288 3 9151165472088410500
81228 2 18050857907095776003
84936 182 17984695619601701969

>  <PUBCHEM_SHAPE_MULTIPOLES>
377.91
7.14
2.63
1.68
6.73
2.97
-0.63
-5.55
0.46
-1.44
0.33
-0.75
-0.49
0.2

>  <PUBCHEM_SHAPE_SELFOVERLAP>
778.866

>  <PUBCHEM_SHAPE_VOLUME>
208.6

>  <PUBCHEM_COORDINATE_TYPE>
2
5
10

>  <Energy>
59.7639

$$$$
