3625899
 OpenBabel09212612403D

 48 49  0  0  1  0  0  0  0  0999 V2000
    3.9906    2.0727   -0.5745 O   0  0  0  0  0  0  0  0  0  0  0  0
   -3.4469    3.5690    0.2791 O   0  0  0  0  0  0  0  0  0  0  0  0
    0.0020   -1.8297    0.5880 C   0  0  1  0  0  0  0  0  0  0  0  0
   -1.2472   -1.6396   -0.3495 C   0  0  1  0  0  0  0  0  0  0  0  0
    0.6043   -3.2552    0.5111 C   0  0  0  0  0  0  0  0  0  0  0  0
   -2.3360   -2.7202   -0.1406 C   0  0  0  0  0  0  0  0  0  0  0  0
    1.0736   -0.7826    0.2830 C   0  0  0  0  0  0  0  0  0  0  0  0
   -1.8443   -0.2408   -0.1817 C   0  0  0  0  0  0  0  0  0  0  0  0
    1.8009   -3.4649    1.4352 C   0  0  0  0  0  0  0  0  0  0  0  0
    1.4564    0.1414    1.2698 C   0  0  0  0  0  0  0  0  0  0  0  0
    1.6870   -0.7191   -0.9737 C   0  0  0  0  0  0  0  0  0  0  0  0
   -3.5150   -2.5903   -1.1000 C   0  0  0  0  0  0  0  0  0  0  0  0
   -1.8674    0.6466   -1.2696 C   0  0  0  0  0  0  0  0  0  0  0  0
   -2.3677    0.1858    1.0502 C   0  0  0  0  0  0  0  0  0  0  0  0
    2.4361    1.1133    1.0161 C   0  0  0  0  0  0  0  0  0  0  0  0
    2.6619    0.2430   -1.2559 C   0  0  0  0  0  0  0  0  0  0  0  0
    3.0293    1.1524   -0.2540 C   0  0  0  0  0  0  0  0  0  0  0  0
   -2.4036    1.9281   -1.1308 C   0  0  0  0  0  0  0  0  0  0  0  0
   -2.8988    1.4666    1.1900 C   0  0  0  0  0  0  0  0  0  0  0  0
    2.8113    2.0735    2.1079 C   0  0  0  0  0  0  0  0  0  0  0  0
    3.2938    0.2872   -2.6168 C   0  0  0  0  0  0  0  0  0  0  0  0
   -2.9151    2.3266    0.1005 C   0  0  0  0  0  0  0  0  0  0  0  0
    4.2687    2.7009    0.0627 H   0  0  0  0  0  0  0  0  0  0  0  0
   -3.4735    4.1744   -0.4356 H   0  0  0  0  0  0  0  0  0  0  0  0
   -0.3485   -1.6942    1.5898 H   0  0  0  0  0  0  0  0  0  0  0  0
   -0.8901   -1.7533   -1.3517 H   0  0  0  0  0  0  0  0  0  0  0  0
    0.9189   -3.4354   -0.4956 H   0  0  0  0  0  0  0  0  0  0  0  0
   -0.1588   -3.9352    0.8276 H   0  0  0  0  0  0  0  0  0  0  0  0
   -2.7041   -2.6408    0.8609 H   0  0  0  0  0  0  0  0  0  0  0  0
   -1.8785   -3.6686   -0.3311 H   0  0  0  0  0  0  0  0  0  0  0  0
    2.5908   -2.8010    1.1521 H   0  0  0  0  0  0  0  0  0  0  0  0
    2.1398   -4.4768    1.3559 H   0  0  0  0  0  0  0  0  0  0  0  0
    1.5110   -3.2641    2.4454 H   0  0  0  0  0  0  0  0  0  0  0  0
    1.0085    0.1046    2.1988 H   0  0  0  0  0  0  0  0  0  0  0  0
    1.4149   -1.3944   -1.7051 H   0  0  0  0  0  0  0  0  0  0  0  0
   -4.0022   -1.6510   -0.9414 H   0  0  0  0  0  0  0  0  0  0  0  0
   -4.2082   -3.3860   -0.9230 H   0  0  0  0  0  0  0  0  0  0  0  0
   -3.1616   -2.6430   -2.1086 H   0  0  0  0  0  0  0  0  0  0  0  0
   -1.4844    0.3487   -2.1804 H   0  0  0  0  0  0  0  0  0  0  0  0
   -2.3589   -0.4551    1.8591 H   0  0  0  0  0  0  0  0  0  0  0  0
   -2.4204    2.5747   -1.9349 H   0  0  0  0  0  0  0  0  0  0  0  0
   -3.2781    1.7742    2.0991 H   0  0  0  0  0  0  0  0  0  0  0  0
    2.2356    1.8598    2.9841 H   0  0  0  0  0  0  0  0  0  0  0  0
    2.6130    3.0745    1.7862 H   0  0  0  0  0  0  0  0  0  0  0  0
    3.8526    1.9704    2.3313 H   0  0  0  0  0  0  0  0  0  0  0  0
    2.8773   -0.4855   -3.2287 H   0  0  0  0  0  0  0  0  0  0  0  0
    4.3495    0.1393   -2.5248 H   0  0  0  0  0  0  0  0  0  0  0  0
    3.1049    1.2394   -3.0669 H   0  0  0  0  0  0  0  0  0  0  0  0
  1 17  1  0  0  0  0
  1 23  1  0  0  0  0
  2 22  1  0  0  0  0
  2 24  1  0  0  0  0
  3  4  1  0  0  0  0
  3  5  1  0  0  0  0
  3  7  1  0  0  0  0
  3 25  1  1  0  0  0
  4  6  1  0  0  0  0
  4  8  1  0  0  0  0
  4 26  1  6  0  0  0
  5  9  1  0  0  0  0
  5 27  1  0  0  0  0
  5 28  1  0  0  0  0
  6 12  1  0  0  0  0
  6 29  1  0  0  0  0
  6 30  1  0  0  0  0
  7 10  2  0  0  0  0
  7 11  1  0  0  0  0
  8 13  2  0  0  0  0
  8 14  1  0  0  0  0
  9 31  1  0  0  0  0
  9 32  1  0  0  0  0
  9 33  1  0  0  0  0
 10 15  1  0  0  0  0
 10 34  1  0  0  0  0
 11 16  2  0  0  0  0
 11 35  1  0  0  0  0
 12 36  1  0  0  0  0
 12 37  1  0  0  0  0
 12 38  1  0  0  0  0
 13 18  1  0  0  0  0
 13 39  1  0  0  0  0
 14 19  2  0  0  0  0
 14 40  1  0  0  0  0
 15 17  2  0  0  0  0
 15 20  1  0  0  0  0
 16 17  1  0  0  0  0
 16 21  1  0  0  0  0
 18 22  2  0  0  0  0
 18 41  1  0  0  0  0
 19 22  1  0  0  0  0
 19 42  1  0  0  0  0
 20 43  1  0  0  0  0
 20 44  1  0  0  0  0
 20 45  1  0  0  0  0
 21 46  1  0  0  0  0
 21 47  1  0  0  0  0
 21 48  1  0  0  0  0
M  END
>  <PUBCHEM_COMPOUND_CID>
3625899

>  <PUBCHEM_CONFORMER_RMSD>
0.8

>  <PUBCHEM_CONFORMER_DIVERSEORDER>
4
14
12
6
8
1
5
9
3
13
2
7
10
11

>  <PUBCHEM_MMFF94_PARTIAL_CHARGES>
26
1 -0.53
10 -0.15
11 -0.15
13 -0.15
14 -0.15
15 -0.14
16 -0.14
17 0.08
18 -0.15
19 -0.15
2 -0.53
20 0.14
21 0.14
22 0.08
29 0.15
3 0.14
30 0.15
37 0.15
38 0.15
39 0.15
4 0.14
40 0.15
47 0.45
48 0.45
7 -0.14
8 -0.14

>  <PUBCHEM_EFFECTIVE_ROTOR_COUNT>
5

>  <PUBCHEM_PHARMACOPHORE_FEATURES>
7
1 1 donor
1 12 hydrophobe
1 2 donor
1 9 hydrophobe
4 3 4 5 6 hydrophobe
6 7 10 11 15 16 17 rings
6 8 13 14 18 19 22 rings

>  <PUBCHEM_HEAVY_ATOM_COUNT>
22

>  <PUBCHEM_ATOM_DEF_STEREO_COUNT>
0

>  <PUBCHEM_ATOM_UDEF_STEREO_COUNT>
2

>  <PUBCHEM_BOND_DEF_STEREO_COUNT>
0

>  <PUBCHEM_BOND_UDEF_STEREO_COUNT>
0

>  <PUBCHEM_ISOTOPIC_ATOM_COUNT>
0

>  <PUBCHEM_COMPONENT_COUNT>
1

>  <PUBCHEM_CACTVS_TAUTO_COUNT>
4

>  <PUBCHEM_CONFORMER_ID>
003753AB00000004

>  <PUBCHEM_MMFF94_ENERGY>
60.827

>  <PUBCHEM_FEATURE_SELFOVERLAP>
35.523

>  <PUBCHEM_SHAPE_FINGERPRINT>
10006869 2 18411698765042962291
10165383 225 18122095067996181053
10498660 4 18337106877652956405
11582403 64 16840738618443612368
11640471 11 16951960885282073356
11725454 13 17056649794199539210
11759241 127 17270875383616497892
12173636 292 18341047433133173477
12788726 201 18120370110329665141
128993 33 18338807718872168729
13132413 78 17762328124942746266
13134695 92 17690826870470918138
13294875 104 18269829818633668146
133893 2 17604693491989311074
13965767 371 17823127952373164172
14178342 30 18409719677512426017
14386348 128 18340498793478006329
14713325 29 17612626675095351244
14955137 171 17835244445872918435
15238133 3 17331970417361093089
16945 1 18047197628786926378
17357779 13 17914044567613860631
17980427 23 17554005932760073043
18981168 100 18410008806236707725
20510252 161 18193833971038859707
20600515 1 17541920423006426310
20671657 1 18192149295944875223
20715895 44 17099980289035875487
20739085 24 16899907384803910483
21524375 3 18412266133605023482
22802520 49 17703801344049627656
23402539 116 17979907542942295822
23557571 272 18125441057851564287
23558518 356 18263631884637151963
23559900 14 18050005794975589374
238 59 18049996693665738581
2637199 183 17843142315304475033
283562 15 18264766747744699483
350125 39 18337107874075235115
469060 322 18115875281579472939
495365 180 17976808797395671069
5252454 2 18337965480154457877
6049 1 17774733063887174148
621550 34 17486208113140017526
6287921 2 17556031516577790760
6442390 28 18264795257806150059
7399639 24 17343495906380806928
7808743 9 18409739486129007132
81228 2 17979085095148651931

>  <PUBCHEM_SHAPE_MULTIPOLES>
441.01
6.38
4.04
1.82
0.46
1.45
0.38
-3.66
1.18
-2.28
-1.12
1.52
-0.33
-0.63

>  <PUBCHEM_SHAPE_SELFOVERLAP>
927.425

>  <PUBCHEM_SHAPE_VOLUME>
250.8

>  <PUBCHEM_COORDINATE_TYPE>
2
5
10

>  <Energy>
42.4648

$$$$
