16945
 OpenBabel09212612403D

 22 26  0  0  0  0  0  0  0  0999 V2000
   -0.0066   -1.6496   -2.6139 Cl  0  0  0  0  0  0  0  0  0  0  0  0
   -0.0059    1.6506   -2.6134 Cl  0  0  0  0  0  0  0  0  0  0  0  0
   -0.0106   -1.6484    2.6153 Cl  0  0  0  0  0  0  0  0  0  0  0  0
   -0.0087    1.6477    2.6159 Cl  0  0  0  0  0  0  0  0  0  0  0  0
    1.7966   -2.7633   -0.0022 Cl  0  0  0  0  0  0  0  0  0  0  0  0
   -1.7946   -2.7389    0.0008 Cl  0  0  0  0  0  0  0  0  0  0  0  0
    1.7987    2.7622   -0.0019 Cl  0  0  0  0  0  0  0  0  0  0  0  0
   -1.7926    2.7405    0.0021 Cl  0  0  0  0  0  0  0  0  0  0  0  0
    3.1395   -0.0012   -1.4613 Cl  0  0  0  0  0  0  0  0  0  0  0  0
    3.1383   -0.0012    1.4510 Cl  0  0  0  0  0  0  0  0  0  0  0  0
   -3.1422    0.0009    1.4532 Cl  0  0  0  0  0  0  0  0  0  0  0  0
   -3.1365    0.0016   -1.4606 Cl  0  0  0  0  0  0  0  0  0  0  0  0
    0.0069   -0.7923   -1.0684 C   0  0  2  0  0  0  0  0  0  0  0  0
    0.0074    0.7929   -1.0682 C   0  0  1  0  0  0  0  0  0  0  0  0
    0.0002   -0.7869    1.0726 C   0  0  1  0  0  0  0  0  0  0  0  0
    0.0010    0.7867    1.0729 C   0  0  2  0  0  0  0  0  0  0  0  0
    1.0988   -1.1016   -0.0049 C   0  0  1  0  0  0  0  0  0  0  0  0
   -1.0909   -1.0605    0.0001 C   0  0  2  0  0  0  0  0  0  0  0  0
    1.0998    1.1008   -0.0048 C   0  0  2  0  0  0  0  0  0  0  0  0
   -1.0900    1.0615    0.0005 C   0  0  1  0  0  0  0  0  0  0  0  0
    2.1361   -0.0008   -0.0057 C   0  0  0  0  0  0  0  0  0  0  0  0
   -2.1438    0.0009   -0.0021 C   0  0  0  0  0  0  0  0  0  0  0  0
  9 21  1  0  0  0  0
 10 21  1  0  0  0  0
 11 22  1  0  0  0  0
 12 22  1  0  0  0  0
 13  1  1  6  0  0  0
 13 14  1  0  0  0  0
 13 17  1  0  0  0  0
 13 18  1  0  0  0  0
 14  2  1  6  0  0  0
 14 19  1  0  0  0  0
 14 20  1  0  0  0  0
 15  3  1  1  0  0  0
 15 16  1  0  0  0  0
 15 17  1  0  0  0  0
 15 18  1  0  0  0  0
 16  4  1  1  0  0  0
 16 19  1  0  0  0  0
 16 20  1  0  0  0  0
 17  5  1  1  0  0  0
 17 21  1  0  0  0  0
 18  6  1  1  0  0  0
 18 22  1  0  0  0  0
 19  7  1  1  0  0  0
 19 21  1  0  0  0  0
 20  8  1  1  0  0  0
 20 22  1  0  0  0  0
M  END
>  <PUBCHEM_COMPOUND_CID>
16945

>  <PUBCHEM_CONFORMER_RMSD>
0.6

>  <PUBCHEM_CONFORMER_DIVERSEORDER>
1

>  <PUBCHEM_MMFF94_PARTIAL_CHARGES>
22
1 -0.29
10 -0.29
11 -0.29
12 -0.29
13 0.29
14 0.29
15 0.29
16 0.29
17 0.29
18 0.29
19 0.29
2 -0.29
20 0.29
21 0.58
22 0.58
3 -0.29
4 -0.29
5 -0.29
6 -0.29
7 -0.29
8 -0.29
9 -0.29

>  <PUBCHEM_EFFECTIVE_ROTOR_COUNT>
0.4

>  <PUBCHEM_PHARMACOPHORE_FEATURES>
1
10 13 14 15 16 17 18 19 20 21 22 rings

>  <PUBCHEM_HEAVY_ATOM_COUNT>
22

>  <PUBCHEM_ATOM_DEF_STEREO_COUNT>
0

>  <PUBCHEM_ATOM_UDEF_STEREO_COUNT>
0

>  <PUBCHEM_BOND_DEF_STEREO_COUNT>
0

>  <PUBCHEM_BOND_UDEF_STEREO_COUNT>
0

>  <PUBCHEM_ISOTOPIC_ATOM_COUNT>
0

>  <PUBCHEM_COMPONENT_COUNT>
1

>  <PUBCHEM_CACTVS_TAUTO_COUNT>
1

>  <PUBCHEM_CONFORMER_ID>
0000423100000001

>  <PUBCHEM_MMFF94_ENERGY>
53.0165

>  <PUBCHEM_FEATURE_SELFOVERLAP>
5.074

>  <PUBCHEM_SHAPE_FINGERPRINT>
10863032 1 16008749112686031653
10948715 1 15770058328140415298
12423570 1 10775328340390645270
13024252 1 15140958414076814192
13140716 1 18266740370836554161
144361 1 18266714983543330141
14817 1 14215851436393728964
16945 1 18410855464423129094
2334 1 17978226393699319815
23419403 2 18187651284185884501
23559900 14 18271258209420104380
2748010 2 18122626329516965927

>  <PUBCHEM_SHAPE_MULTIPOLES>
475.19
3.69
2.93
2.53
0
0
0
0
0
0
0
0
0
0

>  <PUBCHEM_SHAPE_SELFOVERLAP>
979.471

>  <PUBCHEM_SHAPE_VOLUME>
272.6

>  <PUBCHEM_COORDINATE_TYPE>
2
5
10

>  <Energy>
19.9795

$$$$
