5284646
 OpenBabel09212612403D

 30 31  0  0  0  0  0  0  0  0999 V2000
    6.1261   -0.2310   -0.1522 N   0  0  0  0  0  0  0  0  0  0  0  0
   -6.1230    0.2321   -0.1524 N   0  0  0  0  0  0  0  0  0  0  0  0
    1.9286    0.2295    0.0326 C   0  0  0  0  0  0  0  0  0  0  0  0
   -1.9259   -0.2280    0.0318 C   0  0  0  0  0  0  0  0  0  0  0  0
    0.4755    0.4767    0.0369 C   0  0  0  0  0  0  0  0  0  0  0  0
   -0.4732   -0.4751    0.0368 C   0  0  0  0  0  0  0  0  0  0  0  0
    2.5025   -0.9649   -0.4179 C   0  0  0  0  0  0  0  0  0  0  0  0
   -2.5000    0.9646   -0.4240 C   0  0  0  0  0  0  0  0  0  0  0  0
    2.7856    1.2659    0.4236 C   0  0  0  0  0  0  0  0  0  0  0  0
   -2.7827   -1.2627    0.4273 C   0  0  0  0  0  0  0  0  0  0  0  0
    4.7411   -0.1158    0.0095 C   0  0  0  0  0  0  0  0  0  0  0  0
   -4.7381    0.1168    0.0081 C   0  0  0  0  0  0  0  0  0  0  0  0
    3.8934   -1.1282   -0.4404 C   0  0  0  0  0  0  0  0  0  0  0  0
   -3.8906    1.1278   -0.4464 C   0  0  0  0  0  0  0  0  0  0  0  0
    4.1755    1.0999    0.3934 C   0  0  0  0  0  0  0  0  0  0  0  0
   -4.1722   -1.0969    0.3970 C   0  0  0  0  0  0  0  0  0  0  0  0
    6.5202   -1.0915   -0.4233 H   0  0  0  0  0  0  0  0  0  0  0  0
    6.7065    0.5485    0.0051 H   0  0  0  0  0  0  0  0  0  0  0  0
   -6.5169    1.0915   -0.4272 H   0  0  0  0  0  0  0  0  0  0  0  0
   -6.7038   -0.5463    0.0094 H   0  0  0  0  0  0  0  0  0  0  0  0
    0.1614    1.4597    0.0403 H   0  0  0  0  0  0  0  0  0  0  0  0
   -0.1591   -1.4581    0.0406 H   0  0  0  0  0  0  0  0  0  0  0  0
    1.8935   -1.7344   -0.7373 H   0  0  0  0  0  0  0  0  0  0  0  0
   -1.8912    1.7326   -0.7473 H   0  0  0  0  0  0  0  0  0  0  0  0
    2.3872    2.1644    0.7384 H   0  0  0  0  0  0  0  0  0  0  0  0
   -2.3840   -2.1598    0.7454 H   0  0  0  0  0  0  0  0  0  0  0  0
    4.2967   -2.0095   -0.7947 H   0  0  0  0  0  0  0  0  0  0  0  0
   -4.2940    2.0077   -0.8040 H   0  0  0  0  0  0  0  0  0  0  0  0
    4.7888    1.8865    0.6582 H   0  0  0  0  0  0  0  0  0  0  0  0
   -4.7853   -1.8823    0.6658 H   0  0  0  0  0  0  0  0  0  0  0  0
  1 11  1  0  0  0  0
  1 17  1  0  0  0  0
  1 18  1  0  0  0  0
  2 12  1  0  0  0  0
  2 19  1  0  0  0  0
  2 20  1  0  0  0  0
  3  5  1  0  0  0  0
  3  7  2  0  0  0  0
  3  9  1  0  0  0  0
  4  6  1  0  0  0  0
  4  8  2  0  0  0  0
  4 10  1  0  0  0  0
  5  6  2  0  0  0  0
  5 21  1  0  0  0  0
  6 22  1  0  0  0  0
  7 13  1  0  0  0  0
  7 23  1  0  0  0  0
  8 14  1  0  0  0  0
  8 24  1  0  0  0  0
  9 15  2  0  0  0  0
  9 25  1  0  0  0  0
 10 16  2  0  0  0  0
 10 26  1  0  0  0  0
 11 13  2  0  0  0  0
 11 15  1  0  0  0  0
 12 14  2  0  0  0  0
 12 16  1  0  0  0  0
 13 27  1  0  0  0  0
 14 28  1  0  0  0  0
 15 29  1  0  0  0  0
 16 30  1  0  0  0  0
M  END
>  <PUBCHEM_COMPOUND_CID>
5284646

>  <PUBCHEM_CONFORMER_RMSD>
0.6

>  <PUBCHEM_CONFORMER_DIVERSEORDER>
1

>  <PUBCHEM_MMFF94_PARTIAL_CHARGES>
30
1 -0.9
10 -0.15
11 0.1
12 0.1
13 -0.15
14 -0.15
15 -0.15
16 -0.15
17 0.15
18 0.15
19 0.15
2 -0.9
20 0.15
21 0.15
22 0.15
23 0.15
24 0.15
25 0.15
26 0.15
27 0.4
28 0.4
29 0.4
3 0.03
30 0.4
4 0.03
5 -0.18
6 -0.18
7 -0.15
8 -0.15
9 -0.15

>  <PUBCHEM_EFFECTIVE_ROTOR_COUNT>
2

>  <PUBCHEM_PHARMACOPHORE_FEATURES>
6
1 1 cation
1 1 donor
1 2 cation
1 2 donor
6 3 7 9 11 13 15 rings
6 4 8 10 12 14 16 rings

>  <PUBCHEM_HEAVY_ATOM_COUNT>
16

>  <PUBCHEM_ATOM_DEF_STEREO_COUNT>
0

>  <PUBCHEM_ATOM_UDEF_STEREO_COUNT>
0

>  <PUBCHEM_BOND_DEF_STEREO_COUNT>
1

>  <PUBCHEM_BOND_UDEF_STEREO_COUNT>
0

>  <PUBCHEM_ISOTOPIC_ATOM_COUNT>
0

>  <PUBCHEM_COMPONENT_COUNT>
1

>  <PUBCHEM_CACTVS_TAUTO_COUNT>
1

>  <PUBCHEM_CONFORMER_ID>
0050A32600000001

>  <PUBCHEM_MMFF94_ENERGY>
69.1744

>  <PUBCHEM_FEATURE_SELFOVERLAP>
30.447

>  <PUBCHEM_SHAPE_FINGERPRINT>
11287383 113 18410012160584976048
12107183 9 17690280408807113475
13081056 2 18410571794776522773
13533116 47 15338844110360825334
13675066 3 18410574028101124146
14123238 8 18410575084663078990
14341114 176 18409453608688946584
15042514 8 18115877476614294379
15196674 1 18338799017141469201
15242439 84 18410292510174740488
15375358 24 18412547612855589446
17834072 33 18131348647896551670
17834076 25 14908179750439680374
17844677 252 18409455790448196677
18186145 218 17822002138101305764
19141452 34 18412263973758648255
19433438 28 18335137613456677873
19489759 90 17967249797900808361
200 152 17632857512208919585
20279233 1 18412552010896695919
20645477 56 18334011688254590149
20645477 70 18059296461597398862
21065198 57 18410855490192932930
21267235 1 18410019831296352778
2297311 6 18261399931392016229
23402539 116 18341607131801256301
23402655 69 18201720665261249300
23557571 272 18187083918800751308
23559900 14 18410852191721515704
26918003 58 18272370884120328922
29717793 49 16845300427725990476
3004659 81 18114747028331725682
351380 180 18413106173552543477
3545911 37 18410575080373392877
4073 2 18041565840330518130
42 15 18408042918106153230
4214541 1 18410012130683910537
42788 4 18410856563934763365
5104073 3 18410575127612752824
542803 24 15864070974672565748
59755656 215 18261674787645041822
69090 78 18343017817651414151
77779 3 18410012147594591972
9709674 26 18410017666665127223

>  <PUBCHEM_SHAPE_MULTIPOLES>
319.31
13.33
1.32
0.69
0.03
0
0
0
-0.33
0
-0.03
0
0
0.77

>  <PUBCHEM_SHAPE_SELFOVERLAP>
686.615

>  <PUBCHEM_SHAPE_VOLUME>
176.3

>  <PUBCHEM_COORDINATE_TYPE>
2
5
10

>  <Energy>
18.0795

$$$$
