5282363
 OpenBabel09212612393D

 28 29  0  0  0  0  0  0  0  0999 V2000
    6.0422   -0.2681    0.0289 O   0  0  0  0  0  0  0  0  0  0  0  0
   -6.0399    0.2690    0.0292 O   0  0  0  0  0  0  0  0  0  0  0  0
    1.9182    0.2447    0.0033 C   0  0  0  0  0  0  0  0  0  0  0  0
   -1.9147   -0.2450    0.0033 C   0  0  0  0  0  0  0  0  0  0  0  0
    0.4677    0.4830    0.0043 C   0  0  0  0  0  0  0  0  0  0  0  0
   -0.4649   -0.4843    0.0038 C   0  0  0  0  0  0  0  0  0  0  0  0
    2.4797   -0.9657   -0.4277 C   0  0  0  0  0  0  0  0  0  0  0  0
   -2.4784    0.9630   -0.4305 C   0  0  0  0  0  0  0  0  0  0  0  0
    2.7730    1.2806    0.4070 C   0  0  0  0  0  0  0  0  0  0  0  0
   -2.7714   -1.2805    0.4084 C   0  0  0  0  0  0  0  0  0  0  0  0
    3.8616   -1.1542   -0.4175 C   0  0  0  0  0  0  0  0  0  0  0  0
   -3.8581    1.1526   -0.4210 C   0  0  0  0  0  0  0  0  0  0  0  0
    4.1567    1.0961    0.4108 C   0  0  0  0  0  0  0  0  0  0  0  0
   -4.1543   -1.0955    0.4125 C   0  0  0  0  0  0  0  0  0  0  0  0
    4.6881   -0.1202    0.0048 C   0  0  0  0  0  0  0  0  0  0  0  0
   -4.6868    0.1207    0.0044 C   0  0  0  0  0  0  0  0  0  0  0  0
    6.4299   -1.0778   -0.2395 H   0  0  0  0  0  0  0  0  0  0  0  0
   -6.4275    1.0784   -0.2404 H   0  0  0  0  0  0  0  0  0  0  0  0
    0.1427    1.4625    0.0055 H   0  0  0  0  0  0  0  0  0  0  0  0
   -0.1402   -1.4639    0.0037 H   0  0  0  0  0  0  0  0  0  0  0  0
    1.8636   -1.7257   -0.7562 H   0  0  0  0  0  0  0  0  0  0  0  0
   -1.8626    1.7221   -0.7615 H   0  0  0  0  0  0  0  0  0  0  0  0
    2.3761    2.1859    0.7034 H   0  0  0  0  0  0  0  0  0  0  0  0
   -2.3752   -2.1859    0.7057 H   0  0  0  0  0  0  0  0  0  0  0  0
    4.2666   -2.0537   -0.7209 H   0  0  0  0  0  0  0  0  0  0  0  0
   -4.2619    2.0516   -0.7271 H   0  0  0  0  0  0  0  0  0  0  0  0
    4.7811    1.8599    0.7139 H   0  0  0  0  0  0  0  0  0  0  0  0
   -4.7786   -1.8587    0.7172 H   0  0  0  0  0  0  0  0  0  0  0  0
  1 15  1  0  0  0  0
  1 17  1  0  0  0  0
  2 16  1  0  0  0  0
  2 18  1  0  0  0  0
  3  5  1  0  0  0  0
  3  7  2  0  0  0  0
  3  9  1  0  0  0  0
  4  6  1  0  0  0  0
  4  8  2  0  0  0  0
  4 10  1  0  0  0  0
  5  6  2  0  0  0  0
  5 19  1  0  0  0  0
  6 20  1  0  0  0  0
  7 11  1  0  0  0  0
  7 21  1  0  0  0  0
  8 12  1  0  0  0  0
  8 22  1  0  0  0  0
  9 13  2  0  0  0  0
  9 23  1  0  0  0  0
 10 14  2  0  0  0  0
 10 24  1  0  0  0  0
 11 15  2  0  0  0  0
 11 25  1  0  0  0  0
 12 16  2  0  0  0  0
 12 26  1  0  0  0  0
 13 15  1  0  0  0  0
 13 27  1  0  0  0  0
 14 16  1  0  0  0  0
 14 28  1  0  0  0  0
M  END
>  <PUBCHEM_COMPOUND_CID>
5282363

>  <PUBCHEM_CONFORMER_RMSD>
0.6

>  <PUBCHEM_CONFORMER_DIVERSEORDER>
1

>  <PUBCHEM_MMFF94_PARTIAL_CHARGES>
28
1 -0.53
10 -0.15
11 -0.15
12 -0.15
13 -0.15
14 -0.15
15 0.08
16 0.08
17 0.15
18 0.15
19 0.15
2 -0.53
20 0.15
21 0.15
22 0.15
23 0.15
24 0.15
25 0.15
26 0.15
27 0.45
28 0.45
3 0.03
4 0.03
5 -0.18
6 -0.18
7 -0.15
8 -0.15
9 -0.15

>  <PUBCHEM_EFFECTIVE_ROTOR_COUNT>
2

>  <PUBCHEM_PHARMACOPHORE_FEATURES>
4
1 1 donor
1 2 donor
6 3 7 9 11 13 15 rings
6 4 8 10 12 14 16 rings

>  <PUBCHEM_HEAVY_ATOM_COUNT>
16

>  <PUBCHEM_ATOM_DEF_STEREO_COUNT>
0

>  <PUBCHEM_ATOM_UDEF_STEREO_COUNT>
0

>  <PUBCHEM_BOND_DEF_STEREO_COUNT>
1

>  <PUBCHEM_BOND_UDEF_STEREO_COUNT>
0

>  <PUBCHEM_ISOTOPIC_ATOM_COUNT>
0

>  <PUBCHEM_COMPONENT_COUNT>
1

>  <PUBCHEM_CACTVS_TAUTO_COUNT>
3

>  <PUBCHEM_CONFORMER_ID>
00509A3B00000001

>  <PUBCHEM_MMFF94_ENERGY>
47.5104

>  <PUBCHEM_FEATURE_SELFOVERLAP>
20.298

>  <PUBCHEM_SHAPE_FINGERPRINT>
11287383 113 18409450314538402568
11471102 20 18273495680668871688
12107183 9 17690280408807113474
13081056 2 18410571794771248021
13533116 47 15267067991304843846
13675066 3 18410574028101124146
14123238 8 18410575084663078990
14341114 176 18409453608683671832
15042514 8 18116158951585730283
15196674 1 18338799017141469201
15242439 84 18410292510174740488
15375358 24 18412547612850314694
17834072 33 18131348647896558166
17834076 25 14764346037366921900
17844677 252 18409455790453464933
18186145 218 17749663073386909228
19141452 34 18412263973758648255
19433438 28 18335137613461952633
200 152 17632574942258154513
20279233 1 18412552010896695919
20645477 56 18334011688254596653
20645477 70 18059296461602680110
21065198 57 18410855490192932922
21267235 1 18410019835591326570
2297311 6 18261399931397290981
23402539 116 18413101780196554479
23402655 69 18201720665261249300
23557571 272 18187083918795476556
23559900 14 18410852191732078200
26918003 58 18272370884120328922
29717793 49 16845300423431023180
3004659 81 18114465553360296298
351380 180 18413106173541993965
3545911 37 18410575080373392877
42 15 18408042918106153238
4214541 1 18410012130689204777
42788 4 18410856563934763365
5104073 3 18410575127612752824
542803 24 15936128568726324452
69090 78 18343017817646139399
77779 3 18410012147594591972
9709674 26 18410299141636576127

>  <PUBCHEM_SHAPE_MULTIPOLES>
317.53
13.14
1.32
0.69
0.03
0
0
0
-0.34
0
-0.03
0
0
0.78

>  <PUBCHEM_SHAPE_SELFOVERLAP>
685.515

>  <PUBCHEM_SHAPE_VOLUME>
175.4

>  <PUBCHEM_COORDINATE_TYPE>
2
5
10

>  <Energy>
16.4868

$$$$
