10204
 OpenBabel09212612403D

 49 52  0  0  1  0  0  0  0  0999 V2000
    4.1620   -0.6627    1.8686 O   0  0  0  0  0  0  0  0  0  0  0  0
   -5.4987    0.1998    1.0997 O   0  0  0  0  0  0  0  0  0  0  0  0
    2.0757    0.6447    0.2304 C   0  0  2  0  0  0  0  0  0  0  0  0
    2.8167   -0.6417   -0.1881 C   0  0  2  0  0  0  0  0  0  0  0  0
    0.6757    0.7471   -0.3813 C   0  0  1  0  0  0  0  0  0  0  0  0
   -0.1706   -0.4782    0.0862 C   0  0  1  0  0  0  0  0  0  0  0  0
   -1.6498   -0.4426   -0.4582 C   0  0  2  0  0  0  0  0  0  0  0  0
    2.0134   -1.8382    0.3408 C   0  0  0  0  0  0  0  0  0  0  0  0
    0.5633   -1.8218   -0.1751 C   0  0  0  0  0  0  0  0  0  0  0  0
    4.1930   -0.3962    0.4677 C   0  0  1  0  0  0  0  0  0  0  0  0
    3.0881    1.7506   -0.0552 C   0  0  0  0  0  0  0  0  0  0  0  0
   -0.0167    2.0531    0.0275 C   0  0  0  0  0  0  0  0  0  0  0  0
    4.4576    1.1080    0.2426 C   0  0  0  0  0  0  0  0  0  0  0  0
   -2.2605    0.9394   -0.1884 C   0  0  0  0  0  0  0  0  0  0  0  0
   -1.4196    2.1379   -0.5575 C   0  0  0  0  0  0  0  0  0  0  0  0
    3.0262   -0.7861   -1.7175 C   0  0  0  0  0  0  0  0  0  0  0  0
   -2.4699   -1.5407    0.2806 C   0  0  0  0  0  0  0  0  0  0  0  0
   -1.7142   -0.7083   -1.9791 C   0  0  0  0  0  0  0  0  0  0  0  0
   -3.9755   -1.3790    0.1376 C   0  0  0  0  0  0  0  0  0  0  0  0
   -3.4883    1.1287    0.3263 C   0  0  0  0  0  0  0  0  0  0  0  0
   -4.4021   -0.0078    0.5940 C   0  0  0  0  0  0  0  0  0  0  0  0
    3.9959   -1.6072    2.0144 H   0  0  0  0  0  0  0  0  0  0  0  0
    1.7997    0.6958    1.2629 H   0  0  0  0  0  0  0  0  0  0  0  0
    0.7634    0.7476   -1.4477 H   0  0  0  0  0  0  0  0  0  0  0  0
   -0.2706   -0.4030    1.1489 H   0  0  0  0  0  0  0  0  0  0  0  0
    2.0016   -1.8027    1.4102 H   0  0  0  0  0  0  0  0  0  0  0  0
    2.4817   -2.7350   -0.0075 H   0  0  0  0  0  0  0  0  0  0  0  0
    0.5768   -2.0011   -1.2299 H   0  0  0  0  0  0  0  0  0  0  0  0
    0.0303   -2.5811    0.3581 H   0  0  0  0  0  0  0  0  0  0  0  0
    4.9446   -1.0332    0.0504 H   0  0  0  0  0  0  0  0  0  0  0  0
    2.9186    2.5924    0.5833 H   0  0  0  0  0  0  0  0  0  0  0  0
    3.0196    2.1151   -1.0589 H   0  0  0  0  0  0  0  0  0  0  0  0
    0.5606    2.8807   -0.3285 H   0  0  0  0  0  0  0  0  0  0  0  0
   -0.0921    2.0775    1.0946 H   0  0  0  0  0  0  0  0  0  0  0  0
    5.1199    1.2474   -0.5861 H   0  0  0  0  0  0  0  0  0  0  0  0
    4.9172    1.5537    1.0999 H   0  0  0  0  0  0  0  0  0  0  0  0
   -1.3464    2.1933   -1.6235 H   0  0  0  0  0  0  0  0  0  0  0  0
   -1.8927    3.0095   -0.1558 H   0  0  0  0  0  0  0  0  0  0  0  0
    2.0826   -0.9573   -2.1922 H   0  0  0  0  0  0  0  0  0  0  0  0
    3.6782   -1.6120   -1.9118 H   0  0  0  0  0  0  0  0  0  0  0  0
    3.4623    0.1112   -2.1041 H   0  0  0  0  0  0  0  0  0  0  0  0
   -2.2235   -1.5036    1.3212 H   0  0  0  0  0  0  0  0  0  0  0  0
   -2.2120   -2.4779   -0.1667 H   0  0  0  0  0  0  0  0  0  0  0  0
   -1.1531    0.0417   -2.4963 H   0  0  0  0  0  0  0  0  0  0  0  0
   -2.7334   -0.6783   -2.3035 H   0  0  0  0  0  0  0  0  0  0  0  0
   -1.3009   -1.6723   -2.1906 H   0  0  0  0  0  0  0  0  0  0  0  0
   -4.4678   -2.1183    0.7343 H   0  0  0  0  0  0  0  0  0  0  0  0
   -4.2415   -1.5007   -0.8917 H   0  0  0  0  0  0  0  0  0  0  0  0
   -3.8021    2.0883    0.5402 H   0  0  0  0  0  0  0  0  0  0  0  0
  1 10  1  0  0  0  0
  1 22  1  0  0  0  0
  2 21  2  0  0  0  0
  3  4  1  0  0  0  0
  3  5  1  0  0  0  0
  3 11  1  0  0  0  0
  3 23  1  1  0  0  0
  4  8  1  0  0  0  0
  4 10  1  0  0  0  0
  4 16  1  6  0  0  0
  5  6  1  0  0  0  0
  5 12  1  0  0  0  0
  5 24  1  6  0  0  0
  6  7  1  0  0  0  0
  6  9  1  0  0  0  0
  6 25  1  1  0  0  0
  7 14  1  0  0  0  0
  7 17  1  0  0  0  0
  7 18  1  6  0  0  0
  8  9  1  0  0  0  0
  8 26  1  0  0  0  0
  8 27  1  0  0  0  0
  9 28  1  0  0  0  0
  9 29  1  0  0  0  0
 10 13  1  0  0  0  0
 10 30  1  6  0  0  0
 11 13  1  0  0  0  0
 11 31  1  0  0  0  0
 11 32  1  0  0  0  0
 12 15  1  0  0  0  0
 12 33  1  0  0  0  0
 12 34  1  0  0  0  0
 13 35  1  0  0  0  0
 13 36  1  0  0  0  0
 14 15  1  0  0  0  0
 14 20  2  0  0  0  0
 15 37  1  0  0  0  0
 15 38  1  0  0  0  0
 16 39  1  0  0  0  0
 16 40  1  0  0  0  0
 16 41  1  0  0  0  0
 17 19  1  0  0  0  0
 17 42  1  0  0  0  0
 17 43  1  0  0  0  0
 18 44  1  0  0  0  0
 18 45  1  0  0  0  0
 18 46  1  0  0  0  0
 19 21  1  0  0  0  0
 19 47  1  0  0  0  0
 19 48  1  0  0  0  0
 20 21  1  0  0  0  0
 20 49  1  0  0  0  0
M  END
>  <PUBCHEM_COMPOUND_CID>
10204

>  <PUBCHEM_CONFORMER_RMSD>
0.6

>  <PUBCHEM_CONFORMER_DIVERSEORDER>
1

>  <PUBCHEM_MMFF94_PARTIAL_CHARGES>
11
1 -0.68
10 0.28
14 -0.28
15 0.14
19 0.06
2 -0.57
20 -0.14
21 0.49
48 0.15
49 0.4
7 0.14

>  <PUBCHEM_EFFECTIVE_ROTOR_COUNT>
1.8

>  <PUBCHEM_PHARMACOPHORE_FEATURES>
7
1 1 acceptor
1 1 donor
1 2 acceptor
5 3 4 10 11 13 rings
6 3 4 5 6 8 9 rings
6 5 6 7 12 14 15 rings
6 7 14 17 19 20 21 rings

>  <PUBCHEM_HEAVY_ATOM_COUNT>
21

>  <PUBCHEM_ATOM_DEF_STEREO_COUNT>
6

>  <PUBCHEM_ATOM_UDEF_STEREO_COUNT>
0

>  <PUBCHEM_BOND_DEF_STEREO_COUNT>
0

>  <PUBCHEM_BOND_UDEF_STEREO_COUNT>
0

>  <PUBCHEM_ISOTOPIC_ATOM_COUNT>
0

>  <PUBCHEM_COMPONENT_COUNT>
1

>  <PUBCHEM_CACTVS_TAUTO_COUNT>
5

>  <PUBCHEM_CONFORMER_ID>
000027DC00000001

>  <PUBCHEM_MMFF94_ENERGY>
67.6436

>  <PUBCHEM_FEATURE_SELFOVERLAP>
35.617

>  <PUBCHEM_SHAPE_FINGERPRINT>
10618630 7 18335139803831937549
10967382 1 18410012143325985524
11132069 177 18413109446423124559
12011746 2 18410296887521842941
12236239 1 17917712409628864247
12251169 10 18412549816743173673
12403814 3 18413100663373350893
12553582 1 18409165502208631213
12633257 1 18334297578268095683
13140716 1 18337952423263409009
13214271 11 18412260653590419559
13221675 6 18412825763579990391
13224815 77 18409726270371316124
13296908 3 18201441359053262198
13583140 156 16879043374240388972
13675066 3 17988924474391988514
14178342 30 18122619458091895912
14223421 5 18263925440691383431
14341114 176 18333733498843452058
14341114 328 18409169925988009810
14787075 74 18337392754770685161
14790565 3 17976269245933864316
15196674 1 18410293626876819465
15375462 189 18412819183653319056
15536298 74 18272376364387698814
15788980 27 16370719335866771567
16945 1 18265613191103414108
17349148 13 17676485047046373930
1813 80 17312831472011850213
18186145 218 18334009497710486654
19050596 39 18408321094442673955
19141452 34 18131354128755129287
19784866 170 18411706482344487687
200 152 18270387395788899479
20028762 73 18127415777100660943
20261772 1 18343300374827657174
20510252 161 18272373014493101881
21033648 29 16988554667974102899
21267235 1 18409459071787029339
21421861 104 18114740408990343450
21637258 2 15719680965436912401
22182313 1 18198904699628118804
22854114 59 18410859858454247899
23184049 59 18202570566221929749
23402539 116 18340759433536585822
23557571 272 18271534104406102636
23559900 14 18268711598039069646
2748010 2 18412256220946968764
2838139 119 15122395278183167857
296302 2 14692566636924316634
3286 77 17603583011009214532
34934 24 18410851045439819301
350125 39 18410577245754386760
5104073 3 18410294756801365867
5374978 207 18333732411757777264
633830 44 18342458175038868030
7097593 13 17464524309137134411
9709674 26 18410860957765883262

>  <PUBCHEM_SHAPE_MULTIPOLES>
420.43
9.1
2.06
1.19
2.33
0.36
0.3
-0.04
-2.99
-0.08
0.08
-0.33
-0.31
-0.06

>  <PUBCHEM_SHAPE_SELFOVERLAP>
902.791

>  <PUBCHEM_SHAPE_VOLUME>
230.5

>  <PUBCHEM_COORDINATE_TYPE>
2
5
10

>  <Energy>
72.1249

$$$$
