11723708
 OpenBabel09212612393D

 45 47  0  0  0  0  0  0  0  0999 V2000
   -0.4908   -0.0292    2.2349 O   0  0  0  0  0  0  0  0  0  0  0  0
   -0.2492    0.0259   -2.3877 O   0  0  0  0  0  0  0  0  0  0  0  0
   -5.7140    0.0003    0.9971 O   0  0  0  0  0  0  0  0  0  0  0  0
    0.0748   -0.0010   -0.0531 N   0  0  0  0  0  0  0  0  0  0  0  0
    1.4822   -0.0006    0.0192 C   0  0  0  0  0  0  0  0  0  0  0  0
    2.1846   -1.2293    0.0515 C   0  0  0  0  0  0  0  0  0  0  0  0
    2.1824    1.2289    0.0597 C   0  0  0  0  0  0  0  0  0  0  0  0
    1.4684   -2.5733    0.0086 C   0  0  0  0  0  0  0  0  0  0  0  0
    1.4652    2.5721    0.0274 C   0  0  0  0  0  0  0  0  0  0  0  0
    3.5898   -1.2025    0.1249 C   0  0  0  0  0  0  0  0  0  0  0  0
    3.5881    1.2034    0.1332 C   0  0  0  0  0  0  0  0  0  0  0  0
   -0.7475   -0.0128    1.0455 C   0  0  0  0  0  0  0  0  0  0  0  0
   -0.6303    0.0108   -1.2325 C   0  0  0  0  0  0  0  0  0  0  0  0
   -2.1158   -0.0048    0.5283 C   0  0  0  0  0  0  0  0  0  0  0  0
   -2.0463    0.0039   -0.8552 C   0  0  0  0  0  0  0  0  0  0  0  0
    1.7217   -3.3798    1.2849 C   0  0  0  0  0  0  0  0  0  0  0  0
    1.8534   -3.3695   -1.2409 C   0  0  0  0  0  0  0  0  0  0  0  0
    1.8500    3.3784   -1.2156 C   0  0  0  0  0  0  0  0  0  0  0  0
    1.7183    3.3688    1.3098 C   0  0  0  0  0  0  0  0  0  0  0  0
    4.2852    0.0009    0.1656 C   0  0  0  0  0  0  0  0  0  0  0  0
   -3.3215   -0.0051    1.2053 C   0  0  0  0  0  0  0  0  0  0  0  0
   -3.1835    0.0063   -1.6412 C   0  0  0  0  0  0  0  0  0  0  0  0
   -4.4756   -0.0009    0.4246 C   0  0  0  0  0  0  0  0  0  0  0  0
   -4.4170    0.0032   -0.9806 C   0  0  0  0  0  0  0  0  0  0  0  0
   -5.7987   -0.0023    1.9303 H   0  0  0  0  0  0  0  0  0  0  0  0
    0.4177   -2.3781   -0.0453 H   0  0  0  0  0  0  0  0  0  0  0  0
    0.4147    2.3765   -0.0281 H   0  0  0  0  0  0  0  0  0  0  0  0
    4.1132   -2.0916    0.1488 H   0  0  0  0  0  0  0  0  0  0  0  0
    4.1103    2.0930    0.1636 H   0  0  0  0  0  0  0  0  0  0  0  0
    2.7667   -3.5931    1.3705 H   0  0  0  0  0  0  0  0  0  0  0  0
    1.1728   -4.2972    1.2419 H   0  0  0  0  0  0  0  0  0  0  0  0
    1.4027   -2.8127    2.1344 H   0  0  0  0  0  0  0  0  0  0  0  0
    2.9017   -3.5825   -1.2191 H   0  0  0  0  0  0  0  0  0  0  0  0
    1.6241   -2.7954   -2.1143 H   0  0  0  0  0  0  0  0  0  0  0  0
    1.3033   -4.2870   -1.2627 H   0  0  0  0  0  0  0  0  0  0  0  0
    2.8982    3.5920   -1.1918 H   0  0  0  0  0  0  0  0  0  0  0  0
    1.2993    4.2957   -1.2302 H   0  0  0  0  0  0  0  0  0  0  0  0
    1.6214    2.8112   -2.0936 H   0  0  0  0  0  0  0  0  0  0  0  0
    2.7632    3.5822    1.3968 H   0  0  0  0  0  0  0  0  0  0  0  0
    1.3999    2.7950    2.1550 H   0  0  0  0  0  0  0  0  0  0  0  0
    1.1688    4.2862    1.2741 H   0  0  0  0  0  0  0  0  0  0  0  0
    5.3158    0.0014    0.2198 H   0  0  0  0  0  0  0  0  0  0  0  0
   -3.3644   -0.0083    2.2364 H   0  0  0  0  0  0  0  0  0  0  0  0
   -3.1251    0.0103   -2.6716 H   0  0  0  0  0  0  0  0  0  0  0  0
   -5.2911    0.0039   -1.5291 H   0  0  0  0  0  0  0  0  0  0  0  0
  1 12  2  0  0  0  0
  2 13  2  0  0  0  0
  3 23  1  0  0  0  0
  3 25  1  0  0  0  0
  4  5  1  0  0  0  0
  4 12  1  0  0  0  0
  4 13  1  0  0  0  0
  5  6  2  0  0  0  0
  5  7  1  0  0  0  0
  6  8  1  0  0  0  0
  6 10  1  0  0  0  0
  7  9  1  0  0  0  0
  7 11  2  0  0  0  0
  8 16  1  0  0  0  0
  8 17  1  0  0  0  0
  8 26  1  0  0  0  0
  9 18  1  0  0  0  0
  9 19  1  0  0  0  0
  9 27  1  0  0  0  0
 10 20  2  0  0  0  0
 10 28  1  0  0  0  0
 11 20  1  0  0  0  0
 11 29  1  0  0  0  0
 12 14  1  0  0  0  0
 13 15  1  0  0  0  0
 14 15  2  0  0  0  0
 14 21  1  0  0  0  0
 15 22  1  0  0  0  0
 16 30  1  0  0  0  0
 16 31  1  0  0  0  0
 16 32  1  0  0  0  0
 17 33  1  0  0  0  0
 17 34  1  0  0  0  0
 17 35  1  0  0  0  0
 18 36  1  0  0  0  0
 18 37  1  0  0  0  0
 18 38  1  0  0  0  0
 19 39  1  0  0  0  0
 19 40  1  0  0  0  0
 19 41  1  0  0  0  0
 20 42  1  0  0  0  0
 21 23  2  0  0  0  0
 21 43  1  0  0  0  0
 22 24  2  0  0  0  0
 22 44  1  0  0  0  0
 23 24  1  0  0  0  0
 24 45  1  0  0  0  0
M  END
>  <PUBCHEM_COMPOUND_CID>
11723708

>  <PUBCHEM_CONFORMER_RMSD>
0.6

>  <PUBCHEM_CONFORMER_DIVERSEORDER>
1

>  <PUBCHEM_MMFF94_PARTIAL_CHARGES>
27
1 -0.57
10 -0.15
11 -0.15
12 0.54
13 0.54
14 0.09
15 0.09
2 -0.57
20 -0.15
21 -0.15
22 -0.15
23 0.08
24 -0.15
27 0.15
28 0.15
3 -0.53
4 -0.24
41 0.15
42 0.15
43 0.15
44 0.15
45 0.45
5 0.12
6 -0.14
7 -0.14
8 0.14
9 0.14

>  <PUBCHEM_EFFECTIVE_ROTOR_COUNT>
3.2

>  <PUBCHEM_PHARMACOPHORE_FEATURES>
8
1 1 acceptor
1 2 acceptor
1 3 donor
3 8 16 17 hydrophobe
3 9 18 19 hydrophobe
5 4 12 13 14 15 rings
6 14 15 21 22 23 24 rings
6 5 6 7 10 11 20 rings

>  <PUBCHEM_HEAVY_ATOM_COUNT>
24

>  <PUBCHEM_ATOM_DEF_STEREO_COUNT>
0

>  <PUBCHEM_ATOM_UDEF_STEREO_COUNT>
0

>  <PUBCHEM_BOND_DEF_STEREO_COUNT>
0

>  <PUBCHEM_BOND_UDEF_STEREO_COUNT>
0

>  <PUBCHEM_ISOTOPIC_ATOM_COUNT>
0

>  <PUBCHEM_COMPONENT_COUNT>
1

>  <PUBCHEM_CACTVS_TAUTO_COUNT>
5

>  <PUBCHEM_CONFORMER_ID>
00B2E3BC00000001

>  <PUBCHEM_MMFF94_ENERGY>
91.1185

>  <PUBCHEM_FEATURE_SELFOVERLAP>
40.687

>  <PUBCHEM_SHAPE_FINGERPRINT>
10165383 225 17971207060419296380
10366900 7 18260271849689019421
11370993 70 18337388373962286595
12035758 1 18114452466236061408
12236239 1 17632294583920199716
12553582 1 18269547252514192286
12788726 201 17400634922725814218
13134695 92 18261381239979219556
13140716 1 18266455597499026896
13583140 156 18412265047758636077
13911987 19 18116177540103778902
13965767 371 16912881789320109760
14955137 171 18272379667724178998
16945 1 18409162212231936350
17818456 19 17343514297552465233
1813 80 17843416076330193982
20645477 70 18411133593852931647
21033648 29 17895741989879332909
22149856 69 14424558256315990783
2255824 54 18341893030235695844
23526113 38 17750782268807572389
23557571 272 16732987466352890439
23558518 356 17761482987121961014
23559900 14 18186518830333274745
238 59 18336543923299033406
283562 15 18266463093118992912
3060560 45 18411694418139978182
350125 39 17688314907951933456
4340502 62 18341617040122581171
4409770 3 15752929814033829198
474 4 18270112551635227048
495365 180 18265042703503851049
70251023 43 17980209590955006166
77492 1 17703787028891760580
81228 2 17114364958837508954
8272917 22 18413114948112700503
9981440 41 16407006759101032888
9999458 23 18336833086098321172

>  <PUBCHEM_SHAPE_MULTIPOLES>
471.32
7.96
3.37
1.64
9.25
0
0.18
0
-0.81
-4.88
-0.07
0.88
0
0.01

>  <PUBCHEM_SHAPE_SELFOVERLAP>
1029.751

>  <PUBCHEM_SHAPE_VOLUME>
256.6

>  <PUBCHEM_COORDINATE_TYPE>
2
5
10

>  <Energy>
58.7059

$$$$
