9064
 OpenBabel09212612403D

 35 37  0  0  1  0  0  0  0  0999 V2000
    0.4144    0.6786   -0.3374 O   0  0  0  0  0  0  0  0  0  0  0  0
   -0.6546   -2.8705    0.0546 O   0  0  0  0  0  0  0  0  0  0  0  0
    4.3774   -1.9433    0.4535 O   0  0  0  0  0  0  0  0  0  0  0  0
    4.6675    2.7605   -0.1411 O   0  0  0  0  0  0  0  0  0  0  0  0
   -4.1649    1.0003    2.1104 O   0  0  0  0  0  0  0  0  0  0  0  0
   -5.8369    0.7832   -0.0496 O   0  0  0  0  0  0  0  0  0  0  0  0
    0.0878   -1.6804    0.3399 C   0  0  2  0  0  0  0  0  0  0  0  0
   -0.3230   -0.5268   -0.5972 C   0  0  1  0  0  0  0  0  0  0  0  0
    1.5731   -1.9686    0.1437 C   0  0  0  0  0  0  0  0  0  0  0  0
    2.3801   -0.7075    0.0740 C   0  0  0  0  0  0  0  0  0  0  0  0
    1.7634    0.5222   -0.1781 C   0  0  0  0  0  0  0  0  0  0  0  0
   -1.7937   -0.1647   -0.4485 C   0  0  0  0  0  0  0  0  0  0  0  0
    3.7714   -0.7389    0.2259 C   0  0  0  0  0  0  0  0  0  0  0  0
    2.5155    1.6971   -0.2428 C   0  0  0  0  0  0  0  0  0  0  0  0
   -2.3096    0.2763    0.7828 C   0  0  0  0  0  0  0  0  0  0  0  0
   -2.6610   -0.2659   -1.5483 C   0  0  0  0  0  0  0  0  0  0  0  0
    4.5327    0.4253    0.1530 C   0  0  0  0  0  0  0  0  0  0  0  0
    3.8945    1.6371   -0.0790 C   0  0  0  0  0  0  0  0  0  0  0  0
   -3.6625    0.5870    0.9079 C   0  0  0  0  0  0  0  0  0  0  0  0
   -4.0158    0.0521   -1.4208 C   0  0  0  0  0  0  0  0  0  0  0  0
   -4.5129    0.4744   -0.1902 C   0  0  0  0  0  0  0  0  0  0  0  0
   -1.6014   -2.6980    0.1765 H   0  0  0  0  0  0  0  0  0  0  0  0
    3.8628   -2.7249    0.5021 H   0  0  0  0  0  0  0  0  0  0  0  0
    4.2700    3.5947   -0.2962 H   0  0  0  0  0  0  0  0  0  0  0  0
   -3.5987    1.0782    2.8529 H   0  0  0  0  0  0  0  0  0  0  0  0
   -6.1662    1.0668    0.7805 H   0  0  0  0  0  0  0  0  0  0  0  0
   -0.1153   -1.3869    1.3487 H   0  0  0  0  0  0  0  0  0  0  0  0
   -0.1157   -0.8919   -1.5813 H   0  0  0  0  0  0  0  0  0  0  0  0
    1.7026   -2.5135   -0.7679 H   0  0  0  0  0  0  0  0  0  0  0  0
    1.9155   -2.5367    0.9833 H   0  0  0  0  0  0  0  0  0  0  0  0
    2.0509    2.6031   -0.4111 H   0  0  0  0  0  0  0  0  0  0  0  0
   -1.6835    0.3703    1.5978 H   0  0  0  0  0  0  0  0  0  0  0  0
   -2.2939   -0.5787   -2.4607 H   0  0  0  0  0  0  0  0  0  0  0  0
    5.5574    0.3881    0.2699 H   0  0  0  0  0  0  0  0  0  0  0  0
   -4.6452   -0.0256   -2.2349 H   0  0  0  0  0  0  0  0  0  0  0  0
  1  8  1  0  0  0  0
  1 11  1  0  0  0  0
  2  7  1  0  0  0  0
  2 22  1  0  0  0  0
  3 13  1  0  0  0  0
  3 23  1  0  0  0  0
  4 18  1  0  0  0  0
  4 24  1  0  0  0  0
  5 19  1  0  0  0  0
  5 25  1  0  0  0  0
  6 21  1  0  0  0  0
  6 26  1  0  0  0  0
  7  8  1  0  0  0  0
  7  9  1  0  0  0  0
  7 27  1  1  0  0  0
  8 12  1  0  0  0  0
  8 28  1  6  0  0  0
  9 10  1  0  0  0  0
  9 29  1  0  0  0  0
  9 30  1  0  0  0  0
 10 11  1  0  0  0  0
 10 13  2  0  0  0  0
 11 14  2  0  0  0  0
 12 15  2  0  0  0  0
 12 16  1  0  0  0  0
 13 17  1  0  0  0  0
 14 18  1  0  0  0  0
 14 31  1  0  0  0  0
 15 19  1  0  0  0  0
 15 32  1  0  0  0  0
 16 20  2  0  0  0  0
 16 33  1  0  0  0  0
 17 18  2  0  0  0  0
 17 34  1  0  0  0  0
 19 21  2  0  0  0  0
 20 21  1  0  0  0  0
 20 35  1  0  0  0  0
M  END
>  <PUBCHEM_COMPOUND_CID>
9064

>  <PUBCHEM_CONFORMER_RMSD>
0.6

>  <PUBCHEM_CONFORMER_DIVERSEORDER>
1
3
7
11
10
12
5
9
4
8
6
2

>  <PUBCHEM_MMFF94_PARTIAL_CHARGES>
31
1 -0.36
10 -0.14
11 0.08
12 -0.14
13 0.08
14 -0.15
15 -0.15
16 -0.15
17 -0.15
18 0.08
19 0.08
2 -0.68
20 -0.15
21 0.08
26 0.15
27 0.15
28 0.4
29 0.15
3 -0.53
30 0.15
31 0.15
32 0.45
33 0.45
34 0.45
35 0.45
4 -0.53
5 -0.53
6 -0.53
7 0.28
8 0.42
9 0.14

>  <PUBCHEM_EFFECTIVE_ROTOR_COUNT>
1.8

>  <PUBCHEM_PHARMACOPHORE_FEATURES>
10
1 1 acceptor
1 2 acceptor
1 2 donor
1 3 donor
1 4 donor
1 5 donor
1 6 donor
6 1 7 8 9 10 11 rings
6 10 11 13 14 17 18 rings
6 12 15 16 19 20 21 rings

>  <PUBCHEM_HEAVY_ATOM_COUNT>
21

>  <PUBCHEM_ATOM_DEF_STEREO_COUNT>
2

>  <PUBCHEM_ATOM_UDEF_STEREO_COUNT>
0

>  <PUBCHEM_BOND_DEF_STEREO_COUNT>
0

>  <PUBCHEM_BOND_UDEF_STEREO_COUNT>
0

>  <PUBCHEM_ISOTOPIC_ATOM_COUNT>
0

>  <PUBCHEM_COMPONENT_COUNT>
1

>  <PUBCHEM_CACTVS_TAUTO_COUNT>
90

>  <PUBCHEM_CONFORMER_ID>
0000236800000001

>  <PUBCHEM_MMFF94_ENERGY>
60.472

>  <PUBCHEM_FEATURE_SELFOVERLAP>
50.782

>  <PUBCHEM_SHAPE_FINGERPRINT>
10411042 1 17760925148175146330
11045977 3 17894639140497199451
11089746 13 17846497084711639328
11471102 20 18408036299936141998
12107183 9 17623295966083963299
12236239 1 18060133220242528463
12390115 104 17975988875491294188
12403259 415 17822284656876369781
12616971 3 18271517628895653087
12633257 1 18335126614694116842
12644460 14 18187359922669283906
12916748 109 16702583826951283939
13140716 1 18334010631766930354
13583140 156 15864890149653696452
13675066 3 17530684320514000500
14386348 63 17240486871142656811
14739800 52 17345454038233215472
14848178 96 18197773521724232752
15196674 1 18336825380948376758
15342168 16 18335424611819405693
15475509 35 16153975851889955040
15475509 8 17842301198063280502
16988056 13 14604802159119131113
1813 80 17697325018815323630
18186145 218 18410856560019688958
200 152 18342167861325183167
204376 136 18335702771070774943
20612939 158 18411417302391581564
20645477 70 18261947471150524398
20739085 24 18189350004034553708
21033648 144 18337942498037262388
21033648 29 17604134978494052485
21033650 10 16558211353043739736
21065201 7 15574711348555429243
22854114 59 18259704497409937461
23184049 59 18333452036450930396
23366157 5 17272027367366476415
23402539 116 16845278433140367605
23559900 14 18341889715228071818
25147074 1 18266442373833286166
335352 9 18409165524691029942
34797466 226 14979671147571512329
4340502 62 18335432249120531955
474 4 18413671309475597867
5104073 3 18189325939711992312
5283173 99 11959467651638292403
602551 16 15575007190213582808
6034566 193 17608946613640460156
633830 44 18272942595696290423
77492 1 17988917839105392167
8272917 22 18340768143693436406
90127 26 17895189974300457725
9971528 1 18130784513371075934
9981440 41 17123640911054376280
9999458 23 18040997319841508190

>  <PUBCHEM_SHAPE_MULTIPOLES>
396.95
10.9
2.14
1.12
3.44
0.43
0.14
-4.68
0.8
-2.76
0.16
1.66
-0.16
-0.85

>  <PUBCHEM_SHAPE_SELFOVERLAP>
876.144

>  <PUBCHEM_SHAPE_VOLUME>
212.2

>  <PUBCHEM_COORDINATE_TYPE>
2
5
10

>  <Energy>
52.7176

$$$$
