2078
 OpenBabel09212612403D

 38 38  0  0  0  0  0  0  0  0999 V2000
    1.6156    3.3230    2.1417 Cl  0  0  0  0  0  0  0  0  0  0  0  0
    2.4451   -1.3322   -0.6210 O   0  0  0  0  0  0  0  0  0  0  0  0
    2.5253    1.6403   -0.0722 O   0  0  0  0  0  0  0  0  0  0  0  0
    0.7318    0.2161   -0.2689 N   0  0  0  0  0  0  0  0  0  0  0  0
   -0.6269   -0.0849    0.0037 C   0  0  0  0  0  0  0  0  0  0  0  0
   -1.6553    0.5780   -0.7032 C   0  0  0  0  0  0  0  0  0  0  0  0
   -0.9349   -1.0317    1.0037 C   0  0  0  0  0  0  0  0  0  0  0  0
   -1.3897    1.5957   -1.7946 C   0  0  0  0  0  0  0  0  0  0  0  0
    0.1334   -1.7699    1.7803 C   0  0  0  0  0  0  0  0  0  0  0  0
   -2.9913    0.2883   -0.3827 C   0  0  0  0  0  0  0  0  0  0  0  0
   -2.2815   -1.3013    1.2911 C   0  0  0  0  0  0  0  0  0  0  0  0
   -3.3008   -0.6446    0.6065 C   0  0  0  0  0  0  0  0  0  0  0  0
    1.4135   -0.5906   -1.2636 C   0  0  0  0  0  0  0  0  0  0  0  0
    1.3902    1.3208    0.2852 C   0  0  0  0  0  0  0  0  0  0  0  0
   -1.3053    0.9541   -3.1707 C   0  0  0  0  0  0  0  0  0  0  0  0
    0.4784   -3.1104    1.1502 C   0  0  0  0  0  0  0  0  0  0  0  0
    0.6002    2.1126    1.3254 C   0  0  0  0  0  0  0  0  0  0  0  0
    3.1463   -2.1522   -1.5443 C   0  0  0  0  0  0  0  0  0  0  0  0
   -0.4633    2.0894   -1.5873 H   0  0  0  0  0  0  0  0  0  0  0  0
   -2.2061    2.2872   -1.8044 H   0  0  0  0  0  0  0  0  0  0  0  0
   -0.2188   -1.9379    2.7766 H   0  0  0  0  0  0  0  0  0  0  0  0
    1.0178   -1.1677    1.7763 H   0  0  0  0  0  0  0  0  0  0  0  0
   -3.7526    0.7711   -0.8849 H   0  0  0  0  0  0  0  0  0  0  0  0
   -2.5192   -1.9942    2.0181 H   0  0  0  0  0  0  0  0  0  0  0  0
   -4.2871   -0.8486    0.8315 H   0  0  0  0  0  0  0  0  0  0  0  0
    0.7177   -1.2630   -1.7203 H   0  0  0  0  0  0  0  0  0  0  0  0
    1.8341    0.0403   -2.0185 H   0  0  0  0  0  0  0  0  0  0  0  0
   -0.4948    0.2557   -3.1896 H   0  0  0  0  0  0  0  0  0  0  0  0
   -1.1404    1.7118   -3.9081 H   0  0  0  0  0  0  0  0  0  0  0  0
   -2.2212    0.4432   -3.3829 H   0  0  0  0  0  0  0  0  0  0  0  0
   -0.3907   -3.7345    1.1411 H   0  0  0  0  0  0  0  0  0  0  0  0
    1.2513   -3.5836    1.7190 H   0  0  0  0  0  0  0  0  0  0  0  0
    0.8173   -2.9563    0.1470 H   0  0  0  0  0  0  0  0  0  0  0  0
   -0.2109    2.6123    0.8382 H   0  0  0  0  0  0  0  0  0  0  0  0
    0.2404    1.4268    2.0637 H   0  0  0  0  0  0  0  0  0  0  0  0
    3.9122   -2.6941   -1.0299 H   0  0  0  0  0  0  0  0  0  0  0  0
    3.5899   -1.5390   -2.3007 H   0  0  0  0  0  0  0  0  0  0  0  0
    2.4651   -2.8415   -1.9980 H   0  0  0  0  0  0  0  0  0  0  0  0
  1 17  1  0  0  0  0
  2 13  1  0  0  0  0
  2 18  1  0  0  0  0
  3 14  2  0  0  0  0
  4  5  1  0  0  0  0
  4 13  1  0  0  0  0
  4 14  1  0  0  0  0
  5  6  2  0  0  0  0
  5  7  1  0  0  0  0
  6  8  1  0  0  0  0
  6 10  1  0  0  0  0
  7  9  1  0  0  0  0
  7 11  2  0  0  0  0
  8 15  1  0  0  0  0
  8 19  1  0  0  0  0
  8 20  1  0  0  0  0
  9 16  1  0  0  0  0
  9 21  1  0  0  0  0
  9 22  1  0  0  0  0
 10 12  2  0  0  0  0
 10 23  1  0  0  0  0
 11 12  1  0  0  0  0
 11 24  1  0  0  0  0
 12 25  1  0  0  0  0
 13 26  1  0  0  0  0
 13 27  1  0  0  0  0
 14 17  1  0  0  0  0
 15 28  1  0  0  0  0
 15 29  1  0  0  0  0
 15 30  1  0  0  0  0
 16 31  1  0  0  0  0
 16 32  1  0  0  0  0
 16 33  1  0  0  0  0
 17 34  1  0  0  0  0
 17 35  1  0  0  0  0
 18 36  1  0  0  0  0
 18 37  1  0  0  0  0
 18 38  1  0  0  0  0
M  END
>  <PUBCHEM_COMPOUND_CID>
2078

>  <PUBCHEM_CONFORMER_RMSD>
0.8

>  <PUBCHEM_CONFORMER_DIVERSEORDER>
1
16
12
24
11
7
8
19
17
21
15
23
9
18
10
2
20
22
14
3
6
13
5
4

>  <PUBCHEM_MMFF94_PARTIAL_CHARGES>
19
1 -0.29
10 -0.15
11 -0.15
12 -0.15
13 0.58
14 0.57
17 0.35
18 0.28
2 -0.56
23 0.15
24 0.15
27 0.15
3 -0.57
4 -0.48
5 0.12
6 -0.14
7 -0.14
8 0.14
9 0.14

>  <PUBCHEM_EFFECTIVE_ROTOR_COUNT>
7

>  <PUBCHEM_PHARMACOPHORE_FEATURES>
5
1 15 hydrophobe
1 16 hydrophobe
1 2 acceptor
1 3 acceptor
6 5 6 7 10 11 12 rings

>  <PUBCHEM_HEAVY_ATOM_COUNT>
18

>  <PUBCHEM_ATOM_DEF_STEREO_COUNT>
0

>  <PUBCHEM_ATOM_UDEF_STEREO_COUNT>
0

>  <PUBCHEM_BOND_DEF_STEREO_COUNT>
0

>  <PUBCHEM_BOND_UDEF_STEREO_COUNT>
0

>  <PUBCHEM_ISOTOPIC_ATOM_COUNT>
0

>  <PUBCHEM_COMPONENT_COUNT>
1

>  <PUBCHEM_CACTVS_TAUTO_COUNT>
1

>  <PUBCHEM_CONFORMER_ID>
0000081E00000001

>  <PUBCHEM_MMFF94_ENERGY>
69.5937

>  <PUBCHEM_FEATURE_SELFOVERLAP>
25.373

>  <PUBCHEM_SHAPE_FINGERPRINT>
12423570 1 12572018120554629676
14251745 187 17894923883812302750
14761567 1 17900530186306868589
14817 1 14887277742375123965
15375462 175 17530686493777995295
15852999 172 17906730663257301411
16945 1 17845383300321677409
23419403 2 18411415120205511828
23526113 38 18411129208833214450
23558518 356 17836952009548567310
2748010 2 17968384571057474195
3286 77 18342188764609519223
5255222 1 17968658190512360191
68419 9 16970266237555483194
77492 1 16271938115868134589

>  <PUBCHEM_SHAPE_MULTIPOLES>
355.58
4.03
3.19
2.45
0.46
0.54
1.3
-0.71
0.64
-2.71
-1.78
0.16
0.65
2.36

>  <PUBCHEM_SHAPE_SELFOVERLAP>
710.659

>  <PUBCHEM_SHAPE_VOLUME>
212.5

>  <PUBCHEM_COORDINATE_TYPE>
2
5
10

>  <Energy>
44.42

$$$$
