681
 OpenBabel09212612393D

 23 23  0  0  0  0  0  0  0  0999 V2000
   -2.2478    1.9444    0.0587 O   0  0  0  0  0  0  0  0  0  0  0  0
   -3.3675   -0.5053    0.3885 O   0  0  0  0  0  0  0  0  0  0  0  0
    4.4222    0.2596    0.3522 N   0  3  0  0  0  0  0  0  0  0  0  0
    2.1804   -0.0161   -0.6719 C   0  0  0  0  0  0  0  0  0  0  0  0
    0.7040   -0.1603   -0.3989 C   0  0  0  0  0  0  0  0  0  0  0  0
    2.9927    0.1042    0.6222 C   0  0  0  0  0  0  0  0  0  0  0  0
   -0.1093    0.9771   -0.2962 C   0  0  0  0  0  0  0  0  0  0  0  0
    0.1324   -1.4318   -0.2200 C   0  0  0  0  0  0  0  0  0  0  0  0
   -1.4641    0.8299   -0.0343 C   0  0  0  0  0  0  0  0  0  0  0  0
   -1.2337   -1.5706    0.0442 C   0  0  0  0  0  0  0  0  0  0  0  0
   -2.0257   -0.4328    0.1338 C   0  0  0  0  0  0  0  0  0  0  0  0
   -1.8693    2.7941   -0.0545 H   0  0  0  0  0  0  0  0  0  0  0  0
   -3.8770    0.2792    0.4435 H   0  0  0  0  0  0  0  0  0  0  0  0
    4.9285    0.3363    1.2343 H   0  0  0  0  0  0  0  0  0  0  0  0
    4.5740    1.1028   -0.2014 H   0  0  0  0  0  0  0  0  0  0  0  0
    4.7608   -0.5520   -0.1647 H   0  0  0  0  0  0  0  0  0  0  0  0
    2.3387    0.8620   -1.2624 H   0  0  0  0  0  0  0  0  0  0  0  0
    2.5089   -0.8935   -1.1887 H   0  0  0  0  0  0  0  0  0  0  0  0
    2.6486    0.9570    1.1694 H   0  0  0  0  0  0  0  0  0  0  0  0
    2.8559   -0.7946    1.1863 H   0  0  0  0  0  0  0  0  0  0  0  0
    0.2972    1.9182   -0.4148 H   0  0  0  0  0  0  0  0  0  0  0  0
    0.7276   -2.2725   -0.2844 H   0  0  0  0  0  0  0  0  0  0  0  0
   -1.6486   -2.5070    0.1710 H   0  0  0  0  0  0  0  0  0  0  0  0
  1  9  1  0  0  0  0
  1 12  1  0  0  0  0
  2 11  1  0  0  0  0
  2 13  1  0  0  0  0
  3  6  1  0  0  0  0
  3 14  1  0  0  0  0
  3 15  1  0  0  0  0
  3 16  1  0  0  0  0
  4  5  1  0  0  0  0
  4  6  1  0  0  0  0
  4 17  1  0  0  0  0
  4 18  1  0  0  0  0
  5  7  2  0  0  0  0
  5  8  1  0  0  0  0
  6 19  1  0  0  0  0
  6 20  1  0  0  0  0
  7  9  1  0  0  0  0
  7 21  1  0  0  0  0
  8 10  2  0  0  0  0
  8 22  1  0  0  0  0
  9 11  2  0  0  0  0
 10 11  1  0  0  0  0
 10 23  1  0  0  0  0
M  CHG  1   3   1
M  END
>  <PUBCHEM_COMPOUND_CID>
681

>  <PUBCHEM_CONFORMER_RMSD>
0.4

>  <PUBCHEM_CONFORMER_DIVERSEORDER>
1
10
11
6
2
9
4
8
12
7
5
3

>  <PUBCHEM_MMFF94_PARTIAL_CHARGES>
18
1 -0.53
10 -0.15
11 0.08
16 0.15
17 0.15
18 0.15
19 0.36
2 -0.53
20 0.36
21 0.45
22 0.45
3 -0.99
4 0.14
5 -0.14
6 0.27
7 -0.15
8 -0.15
9 0.08

>  <PUBCHEM_EFFECTIVE_ROTOR_COUNT>
2

>  <PUBCHEM_PHARMACOPHORE_FEATURES>
5
1 1 donor
1 2 donor
1 3 cation
1 3 donor
6 5 7 8 9 10 11 rings

>  <PUBCHEM_HEAVY_ATOM_COUNT>
11

>  <PUBCHEM_ATOM_DEF_STEREO_COUNT>
0

>  <PUBCHEM_ATOM_UDEF_STEREO_COUNT>
0

>  <PUBCHEM_BOND_DEF_STEREO_COUNT>
0

>  <PUBCHEM_BOND_UDEF_STEREO_COUNT>
0

>  <PUBCHEM_ISOTOPIC_ATOM_COUNT>
0

>  <PUBCHEM_COMPONENT_COUNT>
1

>  <PUBCHEM_CACTVS_TAUTO_COUNT>
18

>  <PUBCHEM_CONFORMER_ID>
000002A900000001

>  <PUBCHEM_MMFF94_ENERGY>
18.63

>  <PUBCHEM_FEATURE_SELFOVERLAP>
25.376

>  <PUBCHEM_SHAPE_FINGERPRINT>
10857977 72 18411698815616744384
12251169 10 18336262431474704496
12932764 1 17632570557228583102
13024252 1 13406787813918322623
14325111 11 18411418367538085596
15219456 202 18059298656393979366
15310529 11 14620526583701806095
16945 1 18337965561795389591
17846911 113 18342737420610839217
20510252 161 18343586217817938648
20645464 45 18060422412943193102
20871998 184 18200316644330923263
21040471 1 18265343815144450351
22445834 79 17895183390516357346
23402539 116 18341321275794639815
23402655 69 18267570318598203973
2748010 2 18193570960474824879
369184 2 18201997733353704774
53812653 166 18271524200074478465
6333449 129 18341609295963879597
75552 356 18408602586868045176

>  <PUBCHEM_SHAPE_MULTIPOLES>
209.66
5.32
1.51
0.72
4.61
0.13
-0.02
0.59
1.19
-1.1
-0.03
0.22
-0.01
0.11

>  <PUBCHEM_SHAPE_SELFOVERLAP>
430.729

>  <PUBCHEM_SHAPE_VOLUME>
121.4

>  <PUBCHEM_COORDINATE_TYPE>
2
5
10

>  <Energy>
17.1497

$$$$
