5284655
 OpenBabel09212612403D

 45 48  0  0  1  0  0  0  0  0999 V2000
    5.2249   -1.0977   -0.1970 O   0  0  0  0  0  0  0  0  0  0  0  0
   -2.2762    2.9912    0.4031 O   0  0  0  0  0  0  0  0  0  0  0  0
   -5.7151   -0.5836   -0.5226 O   0  0  0  0  0  0  0  0  0  0  0  0
    2.7951   -0.6275   -0.1293 C   0  0  1  0  0  0  0  0  0  0  0  0
    2.0648    0.6530    0.3207 C   0  0  2  0  0  0  0  0  0  0  0  0
    0.5926    0.6540   -0.0900 C   0  0  1  0  0  0  0  0  0  0  0  0
   -0.1188   -0.5530    0.5924 C   0  0  2  0  0  0  0  0  0  0  0  0
    4.2133   -0.2894    0.3696 C   0  0  2  0  0  0  0  0  0  0  0  0
    2.1384   -1.8225    0.5710 C   0  0  0  0  0  0  0  0  0  0  0  0
    2.9795    1.7738   -0.1672 C   0  0  0  0  0  0  0  0  0  0  0  0
    0.6241   -1.8845    0.2981 C   0  0  0  0  0  0  0  0  0  0  0  0
    4.3978    1.1939   -0.0069 C   0  0  0  0  0  0  0  0  0  0  0  0
   -0.1262    1.9387    0.3173 C   0  0  0  0  0  0  0  0  0  0  0  0
    2.7960   -0.8676   -1.6608 C   0  0  0  0  0  0  0  0  0  0  0  0
   -1.6129   -0.5641    0.2717 C   0  0  0  0  0  0  0  0  0  0  0  0
   -1.5497    1.9478   -0.2423 C   0  0  1  0  0  0  0  0  0  0  0  0
   -2.2827    0.6308   -0.0831 C   0  0  0  0  0  0  0  0  0  0  0  0
   -2.3713   -1.7424    0.4034 C   0  0  0  0  0  0  0  0  0  0  0  0
   -3.6646    0.5922   -0.3626 C   0  0  0  0  0  0  0  0  0  0  0  0
   -3.7425   -1.7614    0.1408 C   0  0  0  0  0  0  0  0  0  0  0  0
   -4.3795   -0.5937   -0.2484 C   0  0  0  0  0  0  0  0  0  0  0  0
    5.0806   -2.0224    0.0580 H   0  0  0  0  0  0  0  0  0  0  0  0
   -1.8007    3.8300    0.2967 H   0  0  0  0  0  0  0  0  0  0  0  0
   -6.1334    0.2128   -0.7848 H   0  0  0  0  0  0  0  0  0  0  0  0
    1.9333    0.7682    1.3763 H   0  0  0  0  0  0  0  0  0  0  0  0
    0.5529    0.5817   -1.1568 H   0  0  0  0  0  0  0  0  0  0  0  0
   -0.0645   -0.4386    1.6549 H   0  0  0  0  0  0  0  0  0  0  0  0
    4.3054   -0.4747    1.4194 H   0  0  0  0  0  0  0  0  0  0  0  0
    2.2969   -1.7356    1.6256 H   0  0  0  0  0  0  0  0  0  0  0  0
    2.5821   -2.7174    0.1875 H   0  0  0  0  0  0  0  0  0  0  0  0
    2.8577    2.6520    0.4318 H   0  0  0  0  0  0  0  0  0  0  0  0
    2.7670    2.0702   -1.1732 H   0  0  0  0  0  0  0  0  0  0  0  0
    0.4765   -2.1331   -0.7321 H   0  0  0  0  0  0  0  0  0  0  0  0
    0.2176   -2.6218    0.9585 H   0  0  0  0  0  0  0  0  0  0  0  0
    4.9399    1.2793   -0.9254 H   0  0  0  0  0  0  0  0  0  0  0  0
    4.9532    1.7208    0.7408 H   0  0  0  0  0  0  0  0  0  0  0  0
    0.4102    2.7809   -0.0674 H   0  0  0  0  0  0  0  0  0  0  0  0
   -0.1704    1.9905    1.3851 H   0  0  0  0  0  0  0  0  0  0  0  0
    3.2540   -0.0347   -2.1521 H   0  0  0  0  0  0  0  0  0  0  0  0
    1.7888   -0.9754   -2.0055 H   0  0  0  0  0  0  0  0  0  0  0  0
    3.3459   -1.7585   -1.8818 H   0  0  0  0  0  0  0  0  0  0  0  0
   -1.4783    2.1112   -1.2973 H   0  0  0  0  0  0  0  0  0  0  0  0
   -1.9031   -2.6126    0.7011 H   0  0  0  0  0  0  0  0  0  0  0  0
   -4.1503    1.4545   -0.6552 H   0  0  0  0  0  0  0  0  0  0  0  0
   -4.2778   -2.6386    0.2359 H   0  0  0  0  0  0  0  0  0  0  0  0
  1  8  1  0  0  0  0
  1 22  1  0  0  0  0
  2 16  1  0  0  0  0
  2 23  1  0  0  0  0
  3 21  1  0  0  0  0
  3 24  1  0  0  0  0
  4  5  1  0  0  0  0
  4  8  1  0  0  0  0
  4  9  1  0  0  0  0
  4 14  1  6  0  0  0
  5  6  1  0  0  0  0
  5 10  1  0  0  0  0
  5 25  1  1  0  0  0
  6  7  1  0  0  0  0
  6 13  1  0  0  0  0
  6 26  1  6  0  0  0
  7 11  1  0  0  0  0
  7 15  1  0  0  0  0
  7 27  1  1  0  0  0
  8 12  1  0  0  0  0
  8 28  1  1  0  0  0
  9 11  1  0  0  0  0
  9 29  1  0  0  0  0
  9 30  1  0  0  0  0
 10 12  1  0  0  0  0
 10 31  1  0  0  0  0
 10 32  1  0  0  0  0
 11 33  1  0  0  0  0
 11 34  1  0  0  0  0
 12 35  1  0  0  0  0
 12 36  1  0  0  0  0
 13 16  1  0  0  0  0
 13 37  1  0  0  0  0
 13 38  1  0  0  0  0
 14 39  1  0  0  0  0
 14 40  1  0  0  0  0
 14 41  1  0  0  0  0
 15 17  2  0  0  0  0
 15 18  1  0  0  0  0
 16 17  1  0  0  0  0
 16 42  1  6  0  0  0
 17 19  1  0  0  0  0
 18 20  2  0  0  0  0
 18 43  1  0  0  0  0
 19 21  2  0  0  0  0
 19 44  1  0  0  0  0
 20 21  1  0  0  0  0
 20 45  1  0  0  0  0
M  END
>  <PUBCHEM_COMPOUND_CID>
5284655

>  <PUBCHEM_CONFORMER_RMSD>
0.6

>  <PUBCHEM_CONFORMER_DIVERSEORDER>
1

>  <PUBCHEM_MMFF94_PARTIAL_CHARGES>
18
1 -0.68
15 -0.14
16 0.42
17 -0.14
18 -0.15
19 -0.15
2 -0.68
20 -0.15
21 0.08
3 -0.53
40 0.4
41 0.15
42 0.15
43 0.4
44 0.15
45 0.45
7 0.14
8 0.28

>  <PUBCHEM_EFFECTIVE_ROTOR_COUNT>
1.4

>  <PUBCHEM_PHARMACOPHORE_FEATURES>
9
1 1 acceptor
1 1 donor
1 2 acceptor
1 2 donor
1 3 donor
5 4 5 8 10 12 rings
6 15 17 18 19 20 21 rings
6 4 5 6 7 9 11 rings
6 6 7 13 15 16 17 rings

>  <PUBCHEM_HEAVY_ATOM_COUNT>
21

>  <PUBCHEM_ATOM_DEF_STEREO_COUNT>
6

>  <PUBCHEM_ATOM_UDEF_STEREO_COUNT>
0

>  <PUBCHEM_BOND_DEF_STEREO_COUNT>
0

>  <PUBCHEM_BOND_UDEF_STEREO_COUNT>
0

>  <PUBCHEM_ISOTOPIC_ATOM_COUNT>
0

>  <PUBCHEM_COMPONENT_COUNT>
1

>  <PUBCHEM_CACTVS_TAUTO_COUNT>
3

>  <PUBCHEM_CONFORMER_ID>
0050A32F00000001

>  <PUBCHEM_MMFF94_ENERGY>
72.8428

>  <PUBCHEM_FEATURE_SELFOVERLAP>
45.769

>  <PUBCHEM_SHAPE_FINGERPRINT>
10498660 4 18407477764797689845
10616163 171 18411700958969182687
10646746 165 18410012100872171700
10906281 52 18339942466975688779
10967382 1 18337390564321442481
11471102 20 18409447020335409706
12166972 35 17603868918333938476
12236239 1 17846500352922937747
12403259 226 18410849958824201608
12403260 363 18408038499033166128
12553582 1 18339909490111515947
12596599 1 17987820603457218847
12788726 201 18341324488620094425
128620 24 18060136544046159526
13140716 1 18264497363200732019
13224815 77 18411421704342617688
13862211 1 18409722980474288379
14115302 16 17894918467868845071
14178342 30 18194106426985292800
14787075 74 18265894842147429516
14790565 3 17835241147955408121
15196674 1 18409166640332681985
15375358 24 18335982064156594107
15442244 35 18120088386350625954
15536298 74 18412544331700671592
16945 1 18336835182010654504
17349148 13 17894346679083569306
17492 89 18337669694162490538
17802600 8 18409727357193253232
19141452 34 18059858415392707375
192875 21 17168148940025404860
19591789 44 18193838364970180403
19862831 5 17676205779545586323
200 152 18131349721733256155
20510252 161 18343303630655805337
20645477 70 18343585139834037734
21029758 11 18340484560446913409
21267235 1 18409455790801377811
21501502 16 18264487278248275152
221357 26 18342459231510982780
221490 88 18263087767618847274
22393880 68 18263361391632535910
23402539 116 18339072787052657878
23557571 272 18201723912087791392
23559900 14 18409726287978726024
2748010 2 18120654901290205809
2871803 45 18408600366085123022
3004659 81 18187078464202483510
3286 77 18335136480144279636
335352 9 18409165498309211957
34934 24 18339073899702420923
350125 39 18337110077150520480
351380 180 18409727378768439882
4028521 119 18260542312533094039
4214541 1 18410010996570022724
4409770 3 16021676853148197190
474 4 17313109682697370942
5104073 3 18410855460196870984
5283173 99 18261098639863853237
58051976 378 18411419544290851828
59755656 215 18335985285783525454
69090 78 18343581867111077990
9709674 26 18340773649968084238

>  <PUBCHEM_SHAPE_MULTIPOLES>
414.56
9.56
2.41
0.84
1.58
0.9
0.21
-1.79
1.3
0.52
-0.28
-0.33
-0.15
0.11

>  <PUBCHEM_SHAPE_SELFOVERLAP>
903.771

>  <PUBCHEM_SHAPE_VOLUME>
225.2

>  <PUBCHEM_COORDINATE_TYPE>
2
5
10

>  <Energy>
61.7925

$$$$
