22283
 OpenBabel09212612393D

 49 50  0  0  1  0  0  0  0  0999 V2000
   -4.6991    1.9303    0.1736 O   0  0  0  0  0  0  0  0  0  0  0  0
   -0.3494   -1.7415    0.0426 O   0  0  0  0  0  0  0  0  0  0  0  0
    0.1421   -1.2188    2.2321 O   0  0  0  0  0  0  0  0  0  0  0  0
    2.1479   -2.5737   -0.7722 O   0  0  0  0  0  0  0  0  0  0  0  0
    4.9090    1.2226   -1.3057 O   0  0  0  0  0  0  0  0  0  0  0  0
   -3.8883    1.2651   -0.7970 C   0  0  1  0  0  0  0  0  0  0  0  0
   -2.6111    2.0867   -1.0359 C   0  0  0  0  0  0  0  0  0  0  0  0
   -3.6650   -0.1842   -0.3320 C   0  0  0  0  0  0  0  0  0  0  0  0
   -1.6632    2.1311    0.1687 C   0  0  0  0  0  0  0  0  0  0  0  0
   -2.8364   -1.0173   -1.3084 C   0  0  0  0  0  0  0  0  0  0  0  0
   -0.3758    2.8874   -0.1588 C   0  0  0  0  0  0  0  0  0  0  0  0
   -2.5156   -2.4216   -0.7779 C   0  0  0  0  0  0  0  0  0  0  0  0
    0.5617    3.0286    1.0463 C   0  0  0  0  0  0  0  0  0  0  0  0
   -1.5542   -2.4356    0.4228 C   0  0  1  0  0  0  0  0  0  0  0  0
    1.0661    1.7057    1.6493 C   0  0  0  0  0  0  0  0  0  0  0  0
    1.8753    0.8328    0.7111 C   0  0  0  0  0  0  0  0  0  0  0  0
   -1.1930   -3.8711    0.7895 C   0  0  0  0  0  0  0  0  0  0  0  0
    1.5483   -0.5109    0.4164 C   0  0  0  0  0  0  0  0  0  0  0  0
    0.3783   -1.1742    1.0376 C   0  0  0  0  0  0  0  0  0  0  0  0
    3.0314    1.3785    0.1177 C   0  0  0  0  0  0  0  0  0  0  0  0
    2.3631   -1.2556   -0.4607 C   0  0  0  0  0  0  0  0  0  0  0  0
    3.8111    0.6277   -0.7591 C   0  0  0  0  0  0  0  0  0  0  0  0
    3.4827   -0.6855   -1.0578 C   0  0  0  0  0  0  0  0  0  0  0  0
   -4.8498    2.8472   -0.1048 H   0  0  0  0  0  0  0  0  0  0  0  0
    1.4132   -3.0272   -0.4083 H   0  0  0  0  0  0  0  0  0  0  0  0
    5.1155    2.1113   -1.0922 H   0  0  0  0  0  0  0  0  0  0  0  0
   -4.3616    1.1980   -1.7542 H   0  0  0  0  0  0  0  0  0  0  0  0
   -2.8963    3.0895   -1.2767 H   0  0  0  0  0  0  0  0  0  0  0  0
   -2.0790    1.6075   -1.8310 H   0  0  0  0  0  0  0  0  0  0  0  0
   -4.6197   -0.6524   -0.2130 H   0  0  0  0  0  0  0  0  0  0  0  0
   -3.1174   -0.1390    0.5861 H   0  0  0  0  0  0  0  0  0  0  0  0
   -1.4154    1.1298    0.4532 H   0  0  0  0  0  0  0  0  0  0  0  0
   -2.1589    2.6424    0.9673 H   0  0  0  0  0  0  0  0  0  0  0  0
   -1.9157   -0.5057   -1.4969 H   0  0  0  0  0  0  0  0  0  0  0  0
   -3.4170   -1.1370   -2.1992 H   0  0  0  0  0  0  0  0  0  0  0  0
   -0.6345    3.8660   -0.5056 H   0  0  0  0  0  0  0  0  0  0  0  0
    0.1451    2.3231   -0.9040 H   0  0  0  0  0  0  0  0  0  0  0  0
   -2.0714   -2.9867   -1.5705 H   0  0  0  0  0  0  0  0  0  0  0  0
   -3.4394   -2.8411   -0.4380 H   0  0  0  0  0  0  0  0  0  0  0  0
    0.0372    3.5615    1.8118 H   0  0  0  0  0  0  0  0  0  0  0  0
    1.4306    3.5383    0.6856 H   0  0  0  0  0  0  0  0  0  0  0  0
   -2.0218   -1.9650    1.2624 H   0  0  0  0  0  0  0  0  0  0  0  0
    0.2146    1.1436    1.9717 H   0  0  0  0  0  0  0  0  0  0  0  0
    1.7276    1.9767    2.4454 H   0  0  0  0  0  0  0  0  0  0  0  0
   -0.7250   -4.3460   -0.0474 H   0  0  0  0  0  0  0  0  0  0  0  0
   -2.0814   -4.4064    1.0524 H   0  0  0  0  0  0  0  0  0  0  0  0
   -0.5192   -3.8682    1.6207 H   0  0  0  0  0  0  0  0  0  0  0  0
    3.3044    2.3495    0.3361 H   0  0  0  0  0  0  0  0  0  0  0  0
    4.0610   -1.2328   -1.7144 H   0  0  0  0  0  0  0  0  0  0  0  0
  1  6  1  0  0  0  0
  1 24  1  0  0  0  0
  2 14  1  0  0  0  0
  2 19  1  0  0  0  0
  3 19  2  0  0  0  0
  4 21  1  0  0  0  0
  4 25  1  0  0  0  0
  5 22  1  0  0  0  0
  5 26  1  0  0  0  0
  6  7  1  0  0  0  0
  6  8  1  0  0  0  0
  6 27  1  6  0  0  0
  7  9  1  0  0  0  0
  7 28  1  0  0  0  0
  7 29  1  0  0  0  0
  8 10  1  0  0  0  0
  8 30  1  0  0  0  0
  8 31  1  0  0  0  0
  9 11  1  0  0  0  0
  9 32  1  0  0  0  0
  9 33  1  0  0  0  0
 10 12  1  0  0  0  0
 10 34  1  0  0  0  0
 10 35  1  0  0  0  0
 11 13  1  0  0  0  0
 11 36  1  0  0  0  0
 11 37  1  0  0  0  0
 12 14  1  0  0  0  0
 12 38  1  0  0  0  0
 12 39  1  0  0  0  0
 13 15  1  0  0  0  0
 13 40  1  0  0  0  0
 13 41  1  0  0  0  0
 14 17  1  0  0  0  0
 14 42  1  1  0  0  0
 15 16  1  0  0  0  0
 15 43  1  0  0  0  0
 15 44  1  0  0  0  0
 16 18  2  0  0  0  0
 16 20  1  0  0  0  0
 17 45  1  0  0  0  0
 17 46  1  0  0  0  0
 17 47  1  0  0  0  0
 18 19  1  0  0  0  0
 18 21  1  0  0  0  0
 20 22  2  0  0  0  0
 20 48  1  0  0  0  0
 21 23  2  0  0  0  0
 22 23  1  0  0  0  0
 23 49  1  0  0  0  0
M  END
>  <PUBCHEM_COMPOUND_CID>
22283

>  <PUBCHEM_CONFORMER_RMSD>
0.6

>  <PUBCHEM_CONFORMER_DIVERSEORDER>
2
5
49
46
33
41
43
32
23
7
16
27
39
12
21
50
31
1
37
10
8
40
38
11
51
25
15
24
4
18
22
45
28
35
36
19
26
14
44
3
29
42
17
13
48
47
34
30
6
9
20

>  <PUBCHEM_MMFF94_PARTIAL_CHARGES>
20
1 -0.68
14 0.28
15 0.14
16 -0.14
18 0.09
19 0.63
2 -0.43
20 -0.15
21 0.08
22 0.08
23 -0.15
3 -0.57
4 -0.53
45 0.4
46 0.15
47 0.15
48 0.45
49 0.45
5 -0.53
6 0.28

>  <PUBCHEM_EFFECTIVE_ROTOR_COUNT>
2.2

>  <PUBCHEM_PHARMACOPHORE_FEATURES>
6
1 1 acceptor
1 1 donor
1 3 acceptor
1 4 donor
1 5 donor
6 16 18 20 21 22 23 rings

>  <PUBCHEM_HEAVY_ATOM_COUNT>
23

>  <PUBCHEM_ATOM_DEF_STEREO_COUNT>
0

>  <PUBCHEM_ATOM_UDEF_STEREO_COUNT>
2

>  <PUBCHEM_BOND_DEF_STEREO_COUNT>
0

>  <PUBCHEM_BOND_UDEF_STEREO_COUNT>
0

>  <PUBCHEM_ISOTOPIC_ATOM_COUNT>
0

>  <PUBCHEM_COMPONENT_COUNT>
1

>  <PUBCHEM_CACTVS_TAUTO_COUNT>
25

>  <PUBCHEM_CONFORMER_ID>
0000570B00000002

>  <PUBCHEM_MMFF94_ENERGY>
51.7422

>  <PUBCHEM_FEATURE_SELFOVERLAP>
30.446

>  <PUBCHEM_SHAPE_FINGERPRINT>
10498660 4 18335125476390672637
10674148 151 17416697847142055172
10730089 88 18272386256013912588
10759866 29 17968374563651487480
10764073 3 17552309404014885930
108634 29 18413110571778442014
11578080 2 16915926547365135274
12054548 360 18343580754672129540
12403259 226 17836932570036397490
12553582 1 18342443825601130613
12596599 1 17703782618292832297
12788726 201 17773323335525365520
13140716 1 18267005186130995819
13402501 40 18340485685464308551
13464514 151 18410291423870196730
14114211 68 18045808709551658079
14251740 79 18126297341571743350
14251745 187 18268422615216815456
14251757 5 18337683017260942204
14363568 33 16822229679850891185
14790565 3 18197225745811257289
14931854 50 18412538786977306965
15210252 30 18261395576453953588
17357779 13 18127130998928991676
17492 54 18333724728515205845
19591789 44 18339641114811262921
20465049 17 18267871575661133215
21141583 151 18342736278128686261
21634736 98 18124316004417171814
221357 26 18271243949327049039
22182313 1 17985265429171860976
22907989 373 17978269133694843268
23419403 2 17202476870329990376
23557571 272 18267033919267384510
23559900 14 18342737404369908256
238 59 17901117325621738992
2637199 183 18266744584621678799
2748010 2 17762891473821483681
3052486 1 18188753063419626296
3323516 105 18343579650813150525
3493558 16 15944016732007254996
469060 322 16443635713369535451
484985 159 13683227955255993748
5283173 99 18337952419749845320
58250162 1 17979332193380984579
59755656 520 16732991929208714906
6287921 2 17115802565827495539

>  <PUBCHEM_SHAPE_MULTIPOLES>
443.98
7.16
4.16
1.42
0.31
1.04
-0.34
-2.25
3.57
-2.35
-0.74
0.44
0.08
0.55

>  <PUBCHEM_SHAPE_SELFOVERLAP>
911.07

>  <PUBCHEM_SHAPE_VOLUME>
253.7

>  <PUBCHEM_COORDINATE_TYPE>
2
5
10

>  <Energy>
39.205

$$$$
