2758
 OpenBabel09212612403D

 29 30  0  0  0  0  0  0  0  0999 V2000
   -0.0279   -1.1893   -0.0003 O   0  0  0  0  0  0  0  0  0  0  0  0
   -0.8194    1.1393    0.0001 C   0  0  1  0  0  0  0  0  0  0  0  0
    1.1991   -0.4312   -0.0002 C   0  0  2  0  0  0  0  0  0  0  0  0
   -1.2143   -0.3668   -0.0001 C   0  0  0  0  0  0  0  0  0  0  0  0
    0.0576    1.4392    1.2311 C   0  0  0  0  0  0  0  0  0  0  0  0
    0.0576    1.4397   -1.2307 C   0  0  0  0  0  0  0  0  0  0  0  0
    1.2268    0.4483    1.2646 C   0  0  0  0  0  0  0  0  0  0  0  0
    1.2267    0.4486   -1.2648 C   0  0  0  0  0  0  0  0  0  0  0  0
    2.3546   -1.4265   -0.0004 C   0  0  0  0  0  0  0  0  0  0  0  0
   -2.0337   -0.7516    1.2409 C   0  0  0  0  0  0  0  0  0  0  0  0
   -2.0336   -0.7510   -1.2415 C   0  0  0  0  0  0  0  0  0  0  0  0
   -1.7153    1.7244    0.0002 H   0  0  0  0  0  0  0  0  0  0  0  0
   -0.5264    1.3350    2.1216 H   0  0  0  0  0  0  0  0  0  0  0  0
    0.4332    2.4394    1.1723 H   0  0  0  0  0  0  0  0  0  0  0  0
    0.4358    2.4385   -1.1665 H   0  0  0  0  0  0  0  0  0  0  0  0
   -0.5255    1.3415   -2.1225 H   0  0  0  0  0  0  0  0  0  0  0  0
    2.1498    0.9884    1.3019 H   0  0  0  0  0  0  0  0  0  0  0  0
    1.1391   -0.1739    2.1306 H   0  0  0  0  0  0  0  0  0  0  0  0
    1.1414   -0.1723   -2.1320 H   0  0  0  0  0  0  0  0  0  0  0  0
    2.1490    0.9899   -1.2995 H   0  0  0  0  0  0  0  0  0  0  0  0
    2.3115   -2.0233    0.8866 H   0  0  0  0  0  0  0  0  0  0  0  0
    3.2830   -0.8952   -0.0281 H   0  0  0  0  0  0  0  0  0  0  0  0
    2.2801   -2.0594   -0.8600 H   0  0  0  0  0  0  0  0  0  0  0  0
   -1.4861   -0.4947    2.1236 H   0  0  0  0  0  0  0  0  0  0  0  0
   -2.2218   -1.8049    1.2316 H   0  0  0  0  0  0  0  0  0  0  0  0
   -2.9641   -0.2231    1.2320 H   0  0  0  0  0  0  0  0  0  0  0  0
   -1.4858   -0.4938   -2.1240 H   0  0  0  0  0  0  0  0  0  0  0  0
   -2.9639   -0.2225   -1.2325 H   0  0  0  0  0  0  0  0  0  0  0  0
   -2.2216   -1.8043   -1.2328 H   0  0  0  0  0  0  0  0  0  0  0  0
  1  3  1  0  0  0  0
  1  4  1  0  0  0  0
  2  4  1  0  0  0  0
  2  5  1  0  0  0  0
  2  6  1  0  0  0  0
  2 12  1  1  0  0  0
  3  7  1  0  0  0  0
  3  8  1  0  0  0  0
  3  9  1  6  0  0  0
  4 10  1  0  0  0  0
  4 11  1  0  0  0  0
  5  7  1  0  0  0  0
  5 13  1  0  0  0  0
  5 14  1  0  0  0  0
  6  8  1  0  0  0  0
  6 15  1  0  0  0  0
  6 16  1  0  0  0  0
  7 17  1  0  0  0  0
  7 18  1  0  0  0  0
  8 19  1  0  0  0  0
  8 20  1  0  0  0  0
  9 21  1  0  0  0  0
  9 22  1  0  0  0  0
  9 23  1  0  0  0  0
 10 24  1  0  0  0  0
 10 25  1  0  0  0  0
 10 26  1  0  0  0  0
 11 27  1  0  0  0  0
 11 28  1  0  0  0  0
 11 29  1  0  0  0  0
M  END
>  <PUBCHEM_COMPOUND_CID>
2758

>  <PUBCHEM_CONFORMER_RMSD>
0.4

>  <PUBCHEM_CONFORMER_DIVERSEORDER>
1

>  <PUBCHEM_MMFF94_PARTIAL_CHARGES>
3
1 -0.56
3 0.28
4 0.28

>  <PUBCHEM_EFFECTIVE_ROTOR_COUNT>
1.2

>  <PUBCHEM_PHARMACOPHORE_FEATURES>
3
1 1 acceptor
3 4 10 11 hydrophobe
8 1 2 3 4 5 6 7 8 rings

>  <PUBCHEM_HEAVY_ATOM_COUNT>
11

>  <PUBCHEM_ATOM_DEF_STEREO_COUNT>
0

>  <PUBCHEM_ATOM_UDEF_STEREO_COUNT>
0

>  <PUBCHEM_BOND_DEF_STEREO_COUNT>
0

>  <PUBCHEM_BOND_UDEF_STEREO_COUNT>
0

>  <PUBCHEM_ISOTOPIC_ATOM_COUNT>
0

>  <PUBCHEM_COMPONENT_COUNT>
1

>  <PUBCHEM_CACTVS_TAUTO_COUNT>
1

>  <PUBCHEM_CONFORMER_ID>
00000AC600000001

>  <PUBCHEM_MMFF94_ENERGY>
38.3875

>  <PUBCHEM_FEATURE_SELFOVERLAP>
15.223

>  <PUBCHEM_SHAPE_FINGERPRINT>
12423570 1 15118964766758913508
13024252 1 14203404797501060330
137420 1 12310392494010875493
14128692 85 18262256485309817894
14817 1 12950157061421788961
16945 1 18266740358220859072
20653085 51 13407646455264382238
20653091 64 17558557051968513835
21922407 69 16414352462667106187
29004967 10 17968669322698254968
369184 2 17415261850659446106
5084963 1 17614563635845719653
528886 8 17895481323327503141

>  <PUBCHEM_SHAPE_MULTIPOLES>
220.51
2.52
1.57
1.48
0.07
0.18
0
-1.28
0
-0.2
0
0.2
0.31
0

>  <PUBCHEM_SHAPE_SELFOVERLAP>
456.662

>  <PUBCHEM_SHAPE_VOLUME>
128

>  <PUBCHEM_COORDINATE_TYPE>
2
5
10

>  <Energy>
38.3822

$$$$
