234907
 OpenBabel09212612403D

 42 43  0  0  1  0  0  0  0  0999 V2000
    3.7766    3.0026   -0.5364 O   0  0  0  0  0  0  0  0  0  0  0  0
   -3.7694    3.0073    0.5486 O   0  0  0  0  0  0  0  0  0  0  0  0
    0.6507   -1.6548    0.4355 C   0  0  1  0  0  0  0  0  0  0  0  0
   -0.6528   -1.6497   -0.4478 C   0  0  1  0  0  0  0  0  0  0  0  0
    1.5040   -2.9367    0.2625 C   0  0  0  0  0  0  0  0  0  0  0  0
   -1.5091   -2.9308   -0.2792 C   0  0  0  0  0  0  0  0  0  0  0  0
    1.4980   -0.4080    0.1702 C   0  0  0  0  0  0  0  0  0  0  0  0
   -1.4955   -0.4014   -0.1746 C   0  0  0  0  0  0  0  0  0  0  0  0
    2.7240   -2.9861    1.1795 C   0  0  0  0  0  0  0  0  0  0  0  0
   -2.7541   -2.9582   -1.1625 C   0  0  0  0  0  0  0  0  0  0  0  0
    1.7231    0.5151    1.2049 C   0  0  0  0  0  0  0  0  0  0  0  0
   -1.7192    0.5264   -1.2052 C   0  0  0  0  0  0  0  0  0  0  0  0
    2.0568   -0.1534   -1.0927 C   0  0  0  0  0  0  0  0  0  0  0  0
   -2.0530   -0.1531    1.0898 C   0  0  0  0  0  0  0  0  0  0  0  0
    2.4869    1.6636    0.9839 C   0  0  0  0  0  0  0  0  0  0  0  0
   -2.4812    1.6748   -0.9785 C   0  0  0  0  0  0  0  0  0  0  0  0
    2.8166    0.9962   -1.3145 C   0  0  0  0  0  0  0  0  0  0  0  0
   -2.8117    0.9958    1.3174 C   0  0  0  0  0  0  0  0  0  0  0  0
    3.0268    1.8941   -0.2763 C   0  0  0  0  0  0  0  0  0  0  0  0
   -3.0204    1.8989    0.2831 C   0  0  0  0  0  0  0  0  0  0  0  0
    3.9377    3.6289    0.1417 H   0  0  0  0  0  0  0  0  0  0  0  0
   -3.9297    3.6370   -0.1264 H   0  0  0  0  0  0  0  0  0  0  0  0
    0.3184   -1.6436    1.4525 H   0  0  0  0  0  0  0  0  0  0  0  0
   -0.3228   -1.6328   -1.4655 H   0  0  0  0  0  0  0  0  0  0  0  0
    1.8409   -2.9847   -0.7520 H   0  0  0  0  0  0  0  0  0  0  0  0
    0.8810   -3.7665    0.5235 H   0  0  0  0  0  0  0  0  0  0  0  0
   -1.8186   -2.9980    0.7428 H   0  0  0  0  0  0  0  0  0  0  0  0
   -0.8972   -3.7569   -0.5760 H   0  0  0  0  0  0  0  0  0  0  0  0
    3.3759   -2.1691    0.9501 H   0  0  0  0  0  0  0  0  0  0  0  0
    3.2440   -3.9095    1.0319 H   0  0  0  0  0  0  0  0  0  0  0  0
    2.4071   -2.9141    2.1989 H   0  0  0  0  0  0  0  0  0  0  0  0
   -3.3969   -2.1447   -0.8981 H   0  0  0  0  0  0  0  0  0  0  0  0
   -3.2724   -3.8833   -1.0197 H   0  0  0  0  0  0  0  0  0  0  0  0
   -2.4654   -2.8657   -2.1887 H   0  0  0  0  0  0  0  0  0  0  0  0
    1.3196    0.3427    2.1389 H   0  0  0  0  0  0  0  0  0  0  0  0
   -1.3161    0.3578   -2.1401 H   0  0  0  0  0  0  0  0  0  0  0  0
    1.9043   -0.8222   -1.8637 H   0  0  0  0  0  0  0  0  0  0  0  0
   -1.9004   -0.8259    1.8573 H   0  0  0  0  0  0  0  0  0  0  0  0
    2.6491    2.3357    1.7501 H   0  0  0  0  0  0  0  0  0  0  0  0
   -2.6425    2.3512   -1.7410 H   0  0  0  0  0  0  0  0  0  0  0  0
    3.2208    1.1781   -2.2464 H   0  0  0  0  0  0  0  0  0  0  0  0
   -3.2160    1.1735    2.2502 H   0  0  0  0  0  0  0  0  0  0  0  0
  1 19  1  0  0  0  0
  1 21  1  0  0  0  0
  2 20  1  0  0  0  0
  2 22  1  0  0  0  0
  3  4  1  0  0  0  0
  3  5  1  0  0  0  0
  3  7  1  0  0  0  0
  3 23  1  1  0  0  0
  4  6  1  0  0  0  0
  4  8  1  0  0  0  0
  4 24  1  6  0  0  0
  5  9  1  0  0  0  0
  5 25  1  0  0  0  0
  5 26  1  0  0  0  0
  6 10  1  0  0  0  0
  6 27  1  0  0  0  0
  6 28  1  0  0  0  0
  7 11  2  0  0  0  0
  7 13  1  0  0  0  0
  8 12  2  0  0  0  0
  8 14  1  0  0  0  0
  9 29  1  0  0  0  0
  9 30  1  0  0  0  0
  9 31  1  0  0  0  0
 10 32  1  0  0  0  0
 10 33  1  0  0  0  0
 10 34  1  0  0  0  0
 11 15  1  0  0  0  0
 11 35  1  0  0  0  0
 12 16  1  0  0  0  0
 12 36  1  0  0  0  0
 13 17  2  0  0  0  0
 13 37  1  0  0  0  0
 14 18  2  0  0  0  0
 14 38  1  0  0  0  0
 15 19  2  0  0  0  0
 15 39  1  0  0  0  0
 16 20  2  0  0  0  0
 16 40  1  0  0  0  0
 17 19  1  0  0  0  0
 17 41  1  0  0  0  0
 18 20  1  0  0  0  0
 18 42  1  0  0  0  0
M  END
>  <PUBCHEM_COMPOUND_CID>
234907

>  <PUBCHEM_CONFORMER_RMSD>
0.8

>  <PUBCHEM_CONFORMER_DIVERSEORDER>
1
3
2
4

>  <PUBCHEM_MMFF94_PARTIAL_CHARGES>
26
1 -0.53
11 -0.15
12 -0.15
13 -0.15
14 -0.15
15 -0.15
16 -0.15
17 -0.15
18 -0.15
19 0.08
2 -0.53
20 0.08
3 0.14
33 0.15
34 0.15
35 0.15
36 0.15
37 0.15
38 0.15
39 0.15
4 0.14
40 0.15
41 0.45
42 0.45
7 -0.14
8 -0.14

>  <PUBCHEM_EFFECTIVE_ROTOR_COUNT>
5

>  <PUBCHEM_PHARMACOPHORE_FEATURES>
7
1 1 donor
1 10 hydrophobe
1 2 donor
1 9 hydrophobe
4 3 4 5 6 hydrophobe
6 7 11 13 15 17 19 rings
6 8 12 14 16 18 20 rings

>  <PUBCHEM_HEAVY_ATOM_COUNT>
20

>  <PUBCHEM_ATOM_DEF_STEREO_COUNT>
2

>  <PUBCHEM_ATOM_UDEF_STEREO_COUNT>
0

>  <PUBCHEM_BOND_DEF_STEREO_COUNT>
0

>  <PUBCHEM_BOND_UDEF_STEREO_COUNT>
0

>  <PUBCHEM_ISOTOPIC_ATOM_COUNT>
0

>  <PUBCHEM_COMPONENT_COUNT>
1

>  <PUBCHEM_CACTVS_TAUTO_COUNT>
3

>  <PUBCHEM_CONFORMER_ID>
0003959B00000001

>  <PUBCHEM_MMFF94_ENERGY>
53.4128

>  <PUBCHEM_FEATURE_SELFOVERLAP>
35.523

>  <PUBCHEM_SHAPE_FINGERPRINT>
10165383 225 18194151609614251133
10498660 4 18194115441863184053
10871710 139 18047761678331161981
12173636 292 18340210811625835965
12633257 1 17756728333739472873
12788726 201 18049717726422082987
128993 33 18410586084074726721
13132413 78 17979630144242437514
13134695 92 17756982307571165906
13140716 1 18265050228634401547
13294875 104 18343015554656992192
133893 2 17604689137166630026
13965767 371 18114169818406640228
14142880 1 18263644142130436157
14178342 30 18339350972195163672
14386348 128 18339094738530332712
14614273 12 18190448536214341087
14955137 171 18050015393579292682
15238133 3 17472434148679786105
15490181 7 18338811073115045838
16945 1 18265890272645332222
17134986 127 18339931402602163101
17357779 13 17626941229429842951
18785283 64 18120387466477423745
18981168 100 18411135835593251177
20510252 161 17978226385309832348
20600515 1 17982723074731242218
20645476 183 18270965644004196743
20671657 1 18336828580788338798
20739085 24 17477215928948804770
21041028 32 17686340867556765116
21501502 16 18410848867353960078
21524375 3 18411429418114703586
23175994 123 17686345265281600931
23402539 116 17692244557961573246
23419403 2 16463696186600907062
23557571 272 17981891053217514798
23558518 356 18264214767116646862
238 59 18119793726056509933
283562 15 18049719912529132418
305870 269 18335137613883679344
350125 39 18410012134768284091
469060 322 17973448990408106755
589210 1 18338503196974665478
6442390 28 18193583235248880755
6992083 37 18050829044942037738
74978 22 18342452591233366078
7808743 9 18339369689668602784
81228 2 17835532891459711250

>  <PUBCHEM_SHAPE_MULTIPOLES>
399.85
5.99
4.08
1.36
0
1.56
0
-4.09
0
-0.02
0.02
0
-0.08
-1.6

>  <PUBCHEM_SHAPE_SELFOVERLAP>
841.65

>  <PUBCHEM_SHAPE_VOLUME>
225.7

>  <PUBCHEM_COORDINATE_TYPE>
2
5
10

>  <Energy>
34.5439

$$$$
