12101
 OpenBabel09212612393D

 19 19  0  0  0  0  0  0  0  0999 V2000
   -2.4117    1.5381   -0.0896 O   0  0  0  0  0  0  0  0  0  0  0  0
    0.8491   -0.0511    0.2958 C   0  0  0  0  0  0  0  0  0  0  0  0
    2.2805    0.3406    0.5567 C   0  0  0  0  0  0  0  0  0  0  0  0
   -0.1532    0.9248    0.2172 C   0  0  0  0  0  0  0  0  0  0  0  0
    0.5035   -1.3970    0.1097 C   0  0  0  0  0  0  0  0  0  0  0  0
    3.0431    0.6120   -0.7308 C   0  0  0  0  0  0  0  0  0  0  0  0
   -1.4711    0.5520   -0.0281 C   0  0  0  0  0  0  0  0  0  0  0  0
   -0.8223   -1.7608   -0.1354 C   0  0  0  0  0  0  0  0  0  0  0  0
   -1.8154   -0.7843   -0.2032 C   0  0  0  0  0  0  0  0  0  0  0  0
   -2.1610    2.4329    0.0309 H   0  0  0  0  0  0  0  0  0  0  0  0
    2.7652   -0.4544    1.0838 H   0  0  0  0  0  0  0  0  0  0  0  0
    2.2755    1.2422    1.1330 H   0  0  0  0  0  0  0  0  0  0  0  0
    0.0863    1.9210    0.3413 H   0  0  0  0  0  0  0  0  0  0  0  0
    1.2344   -2.1243    0.1542 H   0  0  0  0  0  0  0  0  0  0  0  0
    3.0632   -0.2760   -1.3274 H   0  0  0  0  0  0  0  0  0  0  0  0
    4.0446    0.9070   -0.4967 H   0  0  0  0  0  0  0  0  0  0  0  0
    2.5582    1.3959   -1.2742 H   0  0  0  0  0  0  0  0  0  0  0  0
   -1.0676   -2.7546   -0.2667 H   0  0  0  0  0  0  0  0  0  0  0  0
   -2.7964   -1.0505   -0.3815 H   0  0  0  0  0  0  0  0  0  0  0  0
  1  7  1  0  0  0  0
  1 10  1  0  0  0  0
  2  3  1  0  0  0  0
  2  4  2  0  0  0  0
  2  5  1  0  0  0  0
  3  6  1  0  0  0  0
  3 11  1  0  0  0  0
  3 12  1  0  0  0  0
  4  7  1  0  0  0  0
  4 13  1  0  0  0  0
  5  8  2  0  0  0  0
  5 14  1  0  0  0  0
  6 15  1  0  0  0  0
  6 16  1  0  0  0  0
  6 17  1  0  0  0  0
  7  9  2  0  0  0  0
  8  9  1  0  0  0  0
  8 18  1  0  0  0  0
  9 19  1  0  0  0  0
M  END
>  <PUBCHEM_COMPOUND_CID>
12101

>  <PUBCHEM_CONFORMER_RMSD>
0.4

>  <PUBCHEM_CONFORMER_DIVERSEORDER>
1
2
3
4

>  <PUBCHEM_MMFF94_PARTIAL_CHARGES>
13
1 -0.53
12 0.15
13 0.15
17 0.15
18 0.15
19 0.45
2 -0.14
3 0.14
4 -0.15
5 -0.15
7 0.08
8 -0.15
9 -0.15

>  <PUBCHEM_EFFECTIVE_ROTOR_COUNT>
1

>  <PUBCHEM_PHARMACOPHORE_FEATURES>
3
1 1 donor
1 6 hydrophobe
6 2 4 5 7 8 9 rings

>  <PUBCHEM_HEAVY_ATOM_COUNT>
9

>  <PUBCHEM_ATOM_DEF_STEREO_COUNT>
0

>  <PUBCHEM_ATOM_UDEF_STEREO_COUNT>
0

>  <PUBCHEM_BOND_DEF_STEREO_COUNT>
0

>  <PUBCHEM_BOND_UDEF_STEREO_COUNT>
0

>  <PUBCHEM_ISOTOPIC_ATOM_COUNT>
0

>  <PUBCHEM_COMPONENT_COUNT>
1

>  <PUBCHEM_CACTVS_TAUTO_COUNT>
9

>  <PUBCHEM_CONFORMER_ID>
00002F4500000001

>  <PUBCHEM_MMFF94_ENERGY>
17.522

>  <PUBCHEM_FEATURE_SELFOVERLAP>
15.223

>  <PUBCHEM_SHAPE_FINGERPRINT>
11206711 2 18339631347760200709
12716758 59 18342740732357736922
14325111 11 18410292506243861024
16714656 1 18339363088176449702
16945 1 18339354296315175819
20645464 45 17845641672853744024
20653085 51 18261128378032339236
21040471 1 18339916035061257546
23235685 24 18411415085882611921
23552423 10 18334009458945485186
2748010 2 18339924805548240127
29004967 10 16056606503463295226
369184 2 18201716310043117882
5084963 1 18058733631628313130

>  <PUBCHEM_SHAPE_MULTIPOLES>
179.35
3.55
1.62
0.73
1.99
0.28
0.02
-1.14
0.59
-0.91
0.04
0.28
-0.02
-0.1

>  <PUBCHEM_SHAPE_SELFOVERLAP>
366.47

>  <PUBCHEM_SHAPE_VOLUME>
104.7

>  <PUBCHEM_COORDINATE_TYPE>
2
5
10

>  <Energy>
7.4824

$$$$
