4632
 OpenBabel09212612393D

 29 30  0  0  0  0  0  0  0  0999 V2000
    4.3737    0.6498    0.4176 O   0  0  0  0  0  0  0  0  0  0  0  0
    0.4458   -1.5370    1.9050 O   0  0  0  0  0  0  0  0  0  0  0  0
   -1.0711   -2.1314   -1.1517 O   0  0  0  0  0  0  0  0  0  0  0  0
    0.4923   -0.6386   -0.3073 C   0  0  0  0  0  0  0  0  0  0  0  0
   -0.8897   -1.0698   -0.5635 C   0  0  0  0  0  0  0  0  0  0  0  0
   -2.0241   -0.1740   -0.2035 C   0  0  0  0  0  0  0  0  0  0  0  0
    1.1219   -0.8902    0.9120 C   0  0  0  0  0  0  0  0  0  0  0  0
    1.1525    0.0593   -1.3191 C   0  0  0  0  0  0  0  0  0  0  0  0
    3.0986    0.2552    0.1063 C   0  0  0  0  0  0  0  0  0  0  0  0
    2.4308   -0.4492    1.1140 C   0  0  0  0  0  0  0  0  0  0  0  0
    2.4542    0.5116   -1.1089 C   0  0  0  0  0  0  0  0  0  0  0  0
   -1.8270    1.0850    0.3841 C   0  0  0  0  0  0  0  0  0  0  0  0
   -3.3256   -0.5997   -0.4960 C   0  0  0  0  0  0  0  0  0  0  0  0
   -2.9204    1.8995    0.6775 C   0  0  0  0  0  0  0  0  0  0  0  0
   -4.4163    0.2182   -0.1984 C   0  0  0  0  0  0  0  0  0  0  0  0
   -4.2136    1.4660    0.3886 C   0  0  0  0  0  0  0  0  0  0  0  0
    5.0772    1.3612   -0.5970 C   0  0  0  0  0  0  0  0  0  0  0  0
   -0.4326   -1.8294    1.7602 H   0  0  0  0  0  0  0  0  0  0  0  0
    0.6795    0.2397   -2.2184 H   0  0  0  0  0  0  0  0  0  0  0  0
    2.9070   -0.6432    2.0088 H   0  0  0  0  0  0  0  0  0  0  0  0
    2.9434    1.0363   -1.8508 H   0  0  0  0  0  0  0  0  0  0  0  0
   -0.8711    1.4088    0.5995 H   0  0  0  0  0  0  0  0  0  0  0  0
   -3.4787   -1.5219   -0.9332 H   0  0  0  0  0  0  0  0  0  0  0  0
   -2.7720    2.8250    1.1094 H   0  0  0  0  0  0  0  0  0  0  0  0
   -5.3739   -0.1011   -0.4131 H   0  0  0  0  0  0  0  0  0  0  0  0
   -5.0212    2.0694    0.6094 H   0  0  0  0  0  0  0  0  0  0  0  0
    6.0542    1.6152   -0.2423 H   0  0  0  0  0  0  0  0  0  0  0  0
    4.5428    2.2555   -0.8413 H   0  0  0  0  0  0  0  0  0  0  0  0
    5.1628    0.7473   -1.4691 H   0  0  0  0  0  0  0  0  0  0  0  0
  1  9  1  0  0  0  0
  1 17  1  0  0  0  0
  2  7  1  0  0  0  0
  2 18  1  0  0  0  0
  3  5  2  0  0  0  0
  4  5  1  0  0  0  0
  4  7  2  0  0  0  0
  4  8  1  0  0  0  0
  5  6  1  0  0  0  0
  6 12  2  0  0  0  0
  6 13  1  0  0  0  0
  7 10  1  0  0  0  0
  8 11  2  0  0  0  0
  8 19  1  0  0  0  0
  9 10  2  0  0  0  0
  9 11  1  0  0  0  0
 10 20  1  0  0  0  0
 11 21  1  0  0  0  0
 12 14  1  0  0  0  0
 12 22  1  0  0  0  0
 13 15  2  0  0  0  0
 13 23  1  0  0  0  0
 14 16  2  0  0  0  0
 14 24  1  0  0  0  0
 15 16  1  0  0  0  0
 15 25  1  0  0  0  0
 16 26  1  0  0  0  0
 17 27  1  0  0  0  0
 17 28  1  0  0  0  0
 17 29  1  0  0  0  0
M  END
>  <PUBCHEM_COMPOUND_CID>
4632

>  <PUBCHEM_CONFORMER_RMSD>
0.6

>  <PUBCHEM_CONFORMER_DIVERSEORDER>
1
2

>  <PUBCHEM_MMFF94_PARTIAL_CHARGES>
26
1 -0.36
10 -0.15
11 -0.15
12 -0.15
13 -0.15
14 -0.15
15 -0.15
16 -0.15
17 0.28
18 0.15
19 0.15
2 -0.53
20 0.15
21 0.15
22 0.15
23 0.15
24 0.15
25 0.15
26 0.45
3 -0.57
4 0.09
5 0.4
6 0.09
7 0.08
8 -0.15
9 0.08

>  <PUBCHEM_EFFECTIVE_ROTOR_COUNT>
3

>  <PUBCHEM_PHARMACOPHORE_FEATURES>
5
1 1 acceptor
1 2 donor
1 3 acceptor
6 4 7 8 9 10 11 rings
6 6 12 13 14 15 16 rings

>  <PUBCHEM_HEAVY_ATOM_COUNT>
17

>  <PUBCHEM_ATOM_DEF_STEREO_COUNT>
0

>  <PUBCHEM_ATOM_UDEF_STEREO_COUNT>
0

>  <PUBCHEM_BOND_DEF_STEREO_COUNT>
0

>  <PUBCHEM_BOND_UDEF_STEREO_COUNT>
0

>  <PUBCHEM_ISOTOPIC_ATOM_COUNT>
0

>  <PUBCHEM_COMPONENT_COUNT>
1

>  <PUBCHEM_CACTVS_TAUTO_COUNT>
5

>  <PUBCHEM_CONFORMER_ID>
0000121800000001

>  <PUBCHEM_MMFF94_ENERGY>
64.4044

>  <PUBCHEM_FEATURE_SELFOVERLAP>
25.371

>  <PUBCHEM_SHAPE_FINGERPRINT>
10498660 4 18059292050755812305
11471102 22 16226045570034976526
12236239 1 18261106383351744751
12251169 10 15791736312304941816
12491281 212 18410292544993505834
12788726 201 17539426718130238038
12916748 109 18271815622116091389
13538477 17 18337098055806168727
13764800 53 18201165369192776731
13965767 371 17903932049730467465
14252887 29 15936405611776898592
14739800 52 18128233745210890256
14787075 74 17970634219161083691
15209294 21 18260543450799920476
15309172 13 16805602581558097690
15342168 16 17313674853312492964
15534591 1 18409165540984889834
15775835 57 18408886213391548497
16945 1 18271527597351353015
1813 80 17755573846641772602
19784866 140 14548750481962792100
19862831 5 12031783669336125397
200 152 17458338663562965807
204376 136 17530969124296074474
20645477 56 18130791191480627932
20671657 53 11600001050682655066
21524375 3 18334580152413191660
21713013 43 13901605434556760013
22079108 93 17895198860482070785
22854114 59 17022903445205760993
23114952 82 16915676777768503165
23402539 116 18060411430474551157
23402655 69 15554170281210736193
23526113 38 16558760004819326822
23557571 272 17774445013315579079
23559900 14 17704078365693774974
26918003 58 15285359518247183045
283562 15 15367590068943499620
2838139 119 17773864476094268176
296302 2 17967249780604992121
298252 57 18343586252230567042
3472631 163 18343586205413591181
4340502 62 17458633302725085515
474 4 18041000699827750460
568465 68 15430044235691512985
633830 44 18261114041262752198
7364860 26 17700134292588421687
76465 3 12036031121915637665
77492 1 18261103076163746663
7808743 9 18130230346151522009

>  <PUBCHEM_SHAPE_MULTIPOLES>
332.24
8.57
1.66
1.24
2.24
0.03
-0.22
-4.8
0.41
-0.7
-0.1
0.55
0.35
-1.05

>  <PUBCHEM_SHAPE_SELFOVERLAP>
721.599

>  <PUBCHEM_SHAPE_VOLUME>
181.9

>  <PUBCHEM_COORDINATE_TYPE>
2
5
10

>  <Energy>
75.8576

$$$$
