182362
 OpenBabel09212612393D

 29 31  0  0  0  0  0  0  0  0999 V2000
   -0.2165    0.8071   -0.0767 O   0  0  0  0  0  0  0  0  0  0  0  0
   -1.9281   -2.8666    0.2694 O   0  0  0  0  0  0  0  0  0  0  0  0
   -5.7252    0.5517   -0.0703 O   0  0  0  0  0  0  0  0  0  0  0  0
    6.1140    0.6275   -0.0347 O   0  0  0  0  0  0  0  0  0  0  0  0
   -2.2357   -0.5366    0.0485 C   0  0  0  0  0  0  0  0  0  0  0  0
   -1.5833    0.6891   -0.0667 C   0  0  0  0  0  0  0  0  0  0  0  0
    0.5492   -0.3457    0.0376 C   0  0  0  0  0  0  0  0  0  0  0  0
    2.0113   -0.1120    0.0170 C   0  0  0  0  0  0  0  0  0  0  0  0
   -1.4265   -1.7537    0.1729 C   0  0  0  0  0  0  0  0  0  0  0  0
    0.0326   -1.5763    0.1725 C   0  0  0  0  0  0  0  0  0  0  0  0
   -3.6311   -0.6113    0.0486 C   0  0  0  0  0  0  0  0  0  0  0  0
   -2.3291    1.8617   -0.1800 C   0  0  0  0  0  0  0  0  0  0  0  0
   -4.3624    0.5650   -0.0657 C   0  0  0  0  0  0  0  0  0  0  0  0
    2.8985   -1.0576   -0.5263 C   0  0  0  0  0  0  0  0  0  0  0  0
    2.5462    1.0857    0.5200 C   0  0  0  0  0  0  0  0  0  0  0  0
   -3.7244    1.7976   -0.1787 C   0  0  0  0  0  0  0  0  0  0  0  0
    4.2771   -0.8269   -0.5455 C   0  0  0  0  0  0  0  0  0  0  0  0
    3.9243    1.3211    0.4962 C   0  0  0  0  0  0  0  0  0  0  0  0
    4.7776    0.3625   -0.0323 C   0  0  0  0  0  0  0  0  0  0  0  0
   -6.1861   -0.2608    0.0040 H   0  0  0  0  0  0  0  0  0  0  0  0
    6.7155    0.0000   -0.3847 H   0  0  0  0  0  0  0  0  0  0  0  0
    0.6553   -2.3928    0.2753 H   0  0  0  0  0  0  0  0  0  0  0  0
   -4.1091   -1.5221    0.1319 H   0  0  0  0  0  0  0  0  0  0  0  0
   -1.8523    2.7731   -0.2645 H   0  0  0  0  0  0  0  0  0  0  0  0
    2.5258   -1.9368   -0.9175 H   0  0  0  0  0  0  0  0  0  0  0  0
    1.9139    1.8009    0.9120 H   0  0  0  0  0  0  0  0  0  0  0  0
   -4.2816    2.6623   -0.2613 H   0  0  0  0  0  0  0  0  0  0  0  0
    4.9176   -1.5347   -0.9378 H   0  0  0  0  0  0  0  0  0  0  0  0
    4.3054    2.2042    0.8702 H   0  0  0  0  0  0  0  0  0  0  0  0
  1  6  1  0  0  0  0
  1  7  1  0  0  0  0
  2  9  2  0  0  0  0
  3 13  1  0  0  0  0
  3 20  1  0  0  0  0
  4 19  1  0  0  0  0
  4 21  1  0  0  0  0
  5  6  2  0  0  0  0
  5  9  1  0  0  0  0
  5 11  1  0  0  0  0
  6 12  1  0  0  0  0
  7  8  1  0  0  0  0
  7 10  2  0  0  0  0
  8 14  2  0  0  0  0
  8 15  1  0  0  0  0
  9 10  1  0  0  0  0
 10 22  1  0  0  0  0
 11 13  2  0  0  0  0
 11 23  1  0  0  0  0
 12 16  2  0  0  0  0
 12 24  1  0  0  0  0
 13 16  1  0  0  0  0
 14 17  1  0  0  0  0
 14 25  1  0  0  0  0
 15 18  2  0  0  0  0
 15 26  1  0  0  0  0
 16 27  1  0  0  0  0
 17 19  2  0  0  0  0
 17 28  1  0  0  0  0
 18 19  1  0  0  0  0
 18 29  1  0  0  0  0
M  END
>  <PUBCHEM_COMPOUND_CID>
182362

>  <PUBCHEM_CONFORMER_RMSD>
0.6

>  <PUBCHEM_CONFORMER_DIVERSEORDER>
1

>  <PUBCHEM_MMFF94_PARTIAL_CHARGES>
29
1 -0.16
10 -0.14
11 -0.15
12 -0.15
13 0.08
14 -0.15
15 -0.15
16 -0.15
17 -0.15
18 -0.15
19 0.08
2 -0.57
20 0.15
21 0.15
22 0.15
23 0.15
24 0.15
25 0.15
26 0.15
27 0.15
28 0.45
29 0.45
3 -0.53
4 -0.53
5 0.09
6 0.08
7 0.05
8 0.03
9 0.47

>  <PUBCHEM_EFFECTIVE_ROTOR_COUNT>
1

>  <PUBCHEM_PHARMACOPHORE_FEATURES>
7
1 1 acceptor
1 2 acceptor
1 3 donor
1 4 donor
6 1 5 6 7 9 10 rings
6 5 6 11 12 13 16 rings
6 8 14 15 17 18 19 rings

>  <PUBCHEM_HEAVY_ATOM_COUNT>
19

>  <PUBCHEM_ATOM_DEF_STEREO_COUNT>
0

>  <PUBCHEM_ATOM_UDEF_STEREO_COUNT>
0

>  <PUBCHEM_BOND_DEF_STEREO_COUNT>
0

>  <PUBCHEM_BOND_UDEF_STEREO_COUNT>
0

>  <PUBCHEM_ISOTOPIC_ATOM_COUNT>
0

>  <PUBCHEM_COMPONENT_COUNT>
1

>  <PUBCHEM_CACTVS_TAUTO_COUNT>
6

>  <PUBCHEM_CONFORMER_ID>
0002C85A00000001

>  <PUBCHEM_MMFF94_ENERGY>
56.2359

>  <PUBCHEM_FEATURE_SELFOVERLAP>
35.55

>  <PUBCHEM_SHAPE_FINGERPRINT>
10 15 18335696200551807272
10411042 1 17832708255084857211
10498660 4 18261950726625270413
10608611 8 18341610464553686808
11578080 2 16484985102404495867
12173636 292 18336824195811502189
12236239 1 17313103068653437264
12390115 104 18199200498796099561
12403259 415 18262238794482022213
12500047 106 18411134753615134862
12596602 18 16443354203542729368
12916748 109 18409453557096396617
12969540 114 18262217959943426493
13081056 2 18412825767848882565
13140716 1 18119538875650222921
13544592 145 18341342089269602686
15042514 8 18263087785400434467
15196674 1 18410855412894103551
15375358 24 18343866615063754422
18186145 218 18342458080169804913
200 152 16989125348594304106
20279233 1 18271814527263518702
20510252 161 18342458097745469225
20602899 9 15985103037336979055
20645477 56 18409167718380061705
20645477 70 17346325843511215870
21033648 29 18337377275862206817
21065198 57 18411699924340792434
21236236 1 18341612668167678959
21267235 1 18410301314868266275
21279426 13 18197500610626726772
221357 26 18131349674457513048
22224240 67 18410022014310728315
23227448 37 18339359772424722373
23402539 116 18412819209771185215
23402655 69 18131349687653242060
23557571 272 18269562791568647646
23559900 14 18342459223501498222
293599 30 18409730630206388977
3004659 81 18335425609243698782
335352 9 18410573989493950084
34934 24 18410007745670221770
351380 180 18342454841864567140
3545911 37 18413109463756071980
4028521 119 18410289190423646069
4214541 1 18411138047849639712
474 4 16878797157019938132
474229 33 18409730660424166847
495365 180 17417798570298339954
5104073 3 18337111168029795594
542803 24 17060340708045873784
59755656 215 18340492179951011830
59755656 520 18260260850167621767
633830 44 18128250091402445221
69090 78 18342736321178579583
77779 3 18412545409848297612
9709674 26 18342744026497881214

>  <PUBCHEM_SHAPE_MULTIPOLES>
367.53
11.16
2.03
0.67
4.96
0.71
0
-3.6
0.57
-1.2
-0.12
0.18
0
0.63

>  <PUBCHEM_SHAPE_SELFOVERLAP>
821.266

>  <PUBCHEM_SHAPE_VOLUME>
194.4

>  <PUBCHEM_COORDINATE_TYPE>
2
5
10

>  <Energy>
23.9147

$$$$
