250948
 OpenBabel09212612393D

 61 64  0  0  1  0  0  0  0  0999 V2000
   -3.0016   -0.0172    1.3470 O   0  0  0  0  0  0  0  0  0  0  0  0
   -4.9613    0.8515   -1.4285 O   0  0  0  0  0  0  0  0  0  0  0  0
    6.7683    0.1196    1.3196 O   0  0  0  0  0  0  0  0  0  0  0  0
   -5.2867   -0.3373    1.4261 O   0  0  0  0  0  0  0  0  0  0  0  0
   -1.5653    0.6900   -0.5348 C   0  0  2  0  0  0  0  0  0  0  0  0
   -0.7427   -0.6251   -0.3802 C   0  0  2  0  0  0  0  0  0  0  0  0
    0.7146   -0.4811   -0.8495 C   0  0  1  0  0  0  0  0  0  0  0  0
    1.4035    0.5936    0.0305 C   0  0  1  0  0  0  0  0  0  0  0  0
   -0.8698    1.7569    0.3411 C   0  0  0  0  0  0  0  0  0  0  0  0
   -3.0015    0.1930   -0.0805 C   0  0  1  0  0  0  0  0  0  0  0  0
    2.9392    0.6874   -0.2800 C   0  0  2  0  0  0  0  0  0  0  0  0
    0.6245    1.9300   -0.0136 C   0  0  0  0  0  0  0  0  0  0  0  0
   -1.6159   -1.6726   -1.0605 C   0  0  0  0  0  0  0  0  0  0  0  0
   -3.0125   -1.2174   -0.7101 C   0  0  0  0  0  0  0  0  0  0  0  0
   -1.6102    1.2054   -2.0061 C   0  0  0  0  0  0  0  0  0  0  0  0
    1.4841   -1.7732   -0.8104 C   0  0  0  0  0  0  0  0  0  0  0  0
    3.5749   -0.7024   -0.0531 C   0  0  0  0  0  0  0  0  0  0  0  0
    3.5859    1.7222    0.6832 C   0  0  0  0  0  0  0  0  0  0  0  0
    2.7712   -1.8853   -0.4416 C   0  0  0  0  0  0  0  0  0  0  0  0
    3.2087    1.1244   -1.7400 C   0  0  0  0  0  0  0  0  0  0  0  0
   -4.1376    1.1503   -0.5616 C   0  0  0  0  0  0  0  0  0  0  0  0
    5.1065    1.7093    0.6610 C   0  0  0  0  0  0  0  0  0  0  0  0
    4.8004   -0.8367    0.4933 C   0  0  0  0  0  0  0  0  0  0  0  0
   -4.0869   -1.9955   -0.9050 C   0  0  0  0  0  0  0  0  0  0  0  0
    5.6376    0.3198    0.8797 C   0  0  0  0  0  0  0  0  0  0  0  0
    3.4326   -3.2504   -0.4577 C   0  0  0  0  0  0  0  0  0  0  0  0
   -4.1535    2.5366    0.0275 C   0  0  0  0  0  0  0  0  0  0  0  0
   -4.1695   -0.4671    1.8943 C   0  0  0  0  0  0  0  0  0  0  0  0
   -3.8833   -1.2101    3.1559 C   0  0  0  0  0  0  0  0  0  0  0  0
   -0.5607   -0.9223    0.6315 H   0  0  0  0  0  0  0  0  0  0  0  0
    0.7052   -0.1844   -1.8775 H   0  0  0  0  0  0  0  0  0  0  0  0
    1.3638    0.2958    1.0575 H   0  0  0  0  0  0  0  0  0  0  0  0
   -0.9474    1.4626    1.3669 H   0  0  0  0  0  0  0  0  0  0  0  0
   -1.3573    2.6926    0.1629 H   0  0  0  0  0  0  0  0  0  0  0  0
    0.6979    2.3373   -1.0003 H   0  0  0  0  0  0  0  0  0  0  0  0
    1.0578    2.5827    0.7151 H   0  0  0  0  0  0  0  0  0  0  0  0
   -1.4197   -2.6501   -0.6720 H   0  0  0  0  0  0  0  0  0  0  0  0
   -1.4456   -1.7487   -2.1141 H   0  0  0  0  0  0  0  0  0  0  0  0
   -0.6355    1.5367   -2.2979 H   0  0  0  0  0  0  0  0  0  0  0  0
   -2.3002    2.0201   -2.0777 H   0  0  0  0  0  0  0  0  0  0  0  0
   -1.9257    0.4129   -2.6521 H   0  0  0  0  0  0  0  0  0  0  0  0
    0.9880   -2.6349   -1.0867 H   0  0  0  0  0  0  0  0  0  0  0  0
    3.2605    1.5060    1.6794 H   0  0  0  0  0  0  0  0  0  0  0  0
    3.2760    2.6922    0.3547 H   0  0  0  0  0  0  0  0  0  0  0  0
    2.7671    0.4177   -2.4111 H   0  0  0  0  0  0  0  0  0  0  0  0
    4.2642    1.1667   -1.9105 H   0  0  0  0  0  0  0  0  0  0  0  0
    2.7813    2.0909   -1.9077 H   0  0  0  0  0  0  0  0  0  0  0  0
    5.4731    2.3498    1.4357 H   0  0  0  0  0  0  0  0  0  0  0  0
    5.4360    2.0529   -0.2973 H   0  0  0  0  0  0  0  0  0  0  0  0
    5.1702   -1.7875    0.6486 H   0  0  0  0  0  0  0  0  0  0  0  0
   -5.0264   -1.6505   -0.6533 H   0  0  0  0  0  0  0  0  0  0  0  0
   -3.9744   -2.9394   -1.3067 H   0  0  0  0  0  0  0  0  0  0  0  0
    2.7189   -3.9890   -0.7579 H   0  0  0  0  0  0  0  0  0  0  0  0
    3.7955   -3.4825    0.5218 H   0  0  0  0  0  0  0  0  0  0  0  0
    4.2498   -3.2427   -1.1483 H   0  0  0  0  0  0  0  0  0  0  0  0
   -4.9743    3.0883   -0.3809 H   0  0  0  0  0  0  0  0  0  0  0  0
   -3.2364    3.0348   -0.2082 H   0  0  0  0  0  0  0  0  0  0  0  0
   -4.2610    2.4714    1.0901 H   0  0  0  0  0  0  0  0  0  0  0  0
   -2.8324   -1.1825    3.3556 H   0  0  0  0  0  0  0  0  0  0  0  0
   -4.1997   -2.2269    3.0507 H   0  0  0  0  0  0  0  0  0  0  0  0
   -4.4124   -0.7540    3.9664 H   0  0  0  0  0  0  0  0  0  0  0  0
  1 28  1  0  0  0  0
  2 21  2  0  0  0  0
  3 25  2  0  0  0  0
  4 28  2  0  0  0  0
  5  6  1  0  0  0  0
  5  9  1  0  0  0  0
  5 10  1  0  0  0  0
  5 15  1  6  0  0  0
  6  7  1  0  0  0  0
  6 13  1  0  0  0  0
  6 30  1  1  0  0  0
  7  8  1  0  0  0  0
  7 16  1  0  0  0  0
  7 31  1  6  0  0  0
  8 11  1  0  0  0  0
  8 12  1  0  0  0  0
  8 32  1  1  0  0  0
  9 12  1  0  0  0  0
  9 33  1  0  0  0  0
  9 34  1  0  0  0  0
 10  1  1  1  0  0  0
 10 14  1  0  0  0  0
 10 21  1  0  0  0  0
 11 17  1  0  0  0  0
 11 18  1  0  0  0  0
 11 20  1  6  0  0  0
 12 35  1  0  0  0  0
 12 36  1  0  0  0  0
 13 14  1  0  0  0  0
 13 37  1  0  0  0  0
 13 38  1  0  0  0  0
 14 24  2  0  0  0  0
 15 39  1  0  0  0  0
 15 40  1  0  0  0  0
 15 41  1  0  0  0  0
 16 19  2  0  0  0  0
 16 42  1  0  0  0  0
 17 19  1  0  0  0  0
 17 23  2  0  0  0  0
 18 22  1  0  0  0  0
 18 43  1  0  0  0  0
 18 44  1  0  0  0  0
 19 26  1  0  0  0  0
 20 45  1  0  0  0  0
 20 46  1  0  0  0  0
 20 47  1  0  0  0  0
 21 27  1  0  0  0  0
 22 25  1  0  0  0  0
 22 48  1  0  0  0  0
 22 49  1  0  0  0  0
 23 25  1  0  0  0  0
 23 50  1  0  0  0  0
 24 51  1  0  0  0  0
 24 52  1  0  0  0  0
 26 53  1  0  0  0  0
 26 54  1  0  0  0  0
 26 55  1  0  0  0  0
 27 56  1  0  0  0  0
 27 57  1  0  0  0  0
 27 58  1  0  0  0  0
 28 29  1  0  0  0  0
 29 59  1  0  0  0  0
 29 60  1  0  0  0  0
 29 61  1  0  0  0  0
M  END
>  <PUBCHEM_COMPOUND_CID>
250948

>  <PUBCHEM_CONFORMER_RMSD>
0.8

>  <PUBCHEM_CONFORMER_DIVERSEORDER>
1
3
2

>  <PUBCHEM_MMFF94_PARTIAL_CHARGES>
25
1 -0.43
10 0.48
11 0.14
13 0.14
14 -0.28
16 -0.29
17 -0.14
19 -0.14
2 -0.57
21 0.45
22 0.06
23 -0.14
24 -0.3
25 0.49
26 0.14
27 0.06
28 0.66
29 0.06
3 -0.57
4 -0.57
42 0.15
50 0.15
51 0.15
52 0.15
7 0.14

>  <PUBCHEM_EFFECTIVE_ROTOR_COUNT>
4.2

>  <PUBCHEM_PHARMACOPHORE_FEATURES>
7
1 2 acceptor
1 3 acceptor
1 4 acceptor
5 5 6 10 13 14 rings
6 11 17 18 22 23 25 rings
6 5 6 7 8 9 12 rings
6 7 8 11 16 17 19 rings

>  <PUBCHEM_HEAVY_ATOM_COUNT>
29

>  <PUBCHEM_ATOM_DEF_STEREO_COUNT>
6

>  <PUBCHEM_ATOM_UDEF_STEREO_COUNT>
0

>  <PUBCHEM_BOND_DEF_STEREO_COUNT>
0

>  <PUBCHEM_BOND_UDEF_STEREO_COUNT>
0

>  <PUBCHEM_ISOTOPIC_ATOM_COUNT>
0

>  <PUBCHEM_COMPONENT_COUNT>
1

>  <PUBCHEM_CACTVS_TAUTO_COUNT>
4

>  <PUBCHEM_CONFORMER_ID>
0003D44400000001

>  <PUBCHEM_MMFF94_ENERGY>
101.0825

>  <PUBCHEM_FEATURE_SELFOVERLAP>
35.621

>  <PUBCHEM_SHAPE_FINGERPRINT>
10 15 18335978740537728936
10675989 125 16969694495784103365
11370993 144 18338801087621810453
11552529 35 17417240078147029799
11578080 2 17316463021859372806
11595378 159 16630254601590270859
11796584 16 16805598149320640714
12107183 9 17696476178425955690
12236239 1 18259977198396450220
12403814 3 18186514410706452213
12422481 6 18339633461279865686
12553582 1 18270695232652581988
12596602 18 17346885567401027987
12633257 1 18271813470247798674
13140716 1 18055636367497453904
13224815 77 18412546526270756422
13544653 18 18335145306006602237
13583140 156 17822001008535339509
13631057 29 17702089477665885951
13675066 3 18333735705976594165
14068700 675 17343768564233252023
14251751 18 16515688883195510194
14341114 176 18342739581633653110
14341114 328 17775573073812433184
14790565 3 18196932391318651844
15163728 17 13829313610076486275
15188451 53 16878226471529690867
15196674 1 18342170077254092334
15361156 5 18187370900262736310
15788980 27 18259981595794095324
17349148 13 18187365454476403908
17980427 23 16558755637249101913
1813 80 17531254945436953837
20511986 3 17845634985167651220
20600515 1 17168150035131289149
20681651 13 17989205954159837467
20715895 44 18053376605036298733
21033648 29 18341344296956593413
21421861 104 18190732043296216906
21623969 137 18409453600420603338
21859007 373 17535737504215408941
22182313 1 18263073328276259348
23402539 116 16950557779158506724
23557571 272 17749661892440078924
23559900 14 18128250087197441022
26918003 58 17894629249160954136
2838139 119 14691422110899743066
3380486 145 18411985780268671093
34934 24 18271797999860053334
350125 39 18129657638147753255
3633792 109 18059565837951598749
392239 28 18202559614271752472
4015057 19 18268694070383231181
460360 51 18199203796940306733
5081480 168 16699800877122304252
5104073 3 18337956666754485835
59755656 215 18340768153164222214
7808743 9 14404640765765131147

>  <PUBCHEM_SHAPE_MULTIPOLES>
573.33
12.71
2.53
1.74
6.32
0.67
-0.9
-0.56
-5
0.66
0.38
-1.87
0.27
1.08

>  <PUBCHEM_SHAPE_SELFOVERLAP>
1242.211

>  <PUBCHEM_SHAPE_VOLUME>
310.2

>  <PUBCHEM_COORDINATE_TYPE>
2
5
10

>  <Energy>
98.4463

$$$$
