5281576
 OpenBabel09212612403D

 45 46  0  0  1  0  0  0  0  0999 V2000
   -0.0432    1.6886    0.7525 O   0  0  0  0  0  0  0  0  0  0  0  0
    4.4050   -0.8977    0.6389 O   0  0  0  0  0  0  0  0  0  0  0  0
   -0.6543    2.1431   -1.4179 O   0  0  0  0  0  0  0  0  0  0  0  0
   -3.4431    2.0560   -1.0513 O   0  0  0  0  0  0  0  0  0  0  0  0
   -4.8899   -2.2443    0.3088 O   0  0  0  0  0  0  0  0  0  0  0  0
    2.3508    1.9549    0.5494 C   0  0  0  0  0  0  0  0  0  0  0  0
    2.5541    1.4498   -0.8843 C   0  0  0  0  0  0  0  0  0  0  0  0
    1.0054    2.6717    0.7350 C   0  0  2  0  0  0  0  0  0  0  0  0
    3.8709    0.7000   -1.0603 C   0  0  0  0  0  0  0  0  0  0  0  0
    3.0940   -1.7647   -1.1972 C   0  0  0  0  0  0  0  0  0  0  0  0
    3.8307   -0.6788   -0.4277 C   0  0  0  0  0  0  0  0  0  0  0  0
    2.7777   -3.0074   -0.3653 C   0  0  0  0  0  0  0  0  0  0  0  0
    0.9565    3.3760    2.0864 C   0  0  0  0  0  0  0  0  0  0  0  0
    1.7776   -2.7817    0.7752 C   0  0  0  0  0  0  0  0  0  0  0  0
   -1.7941    0.4860   -0.1633 C   0  0  0  0  0  0  0  0  0  0  0  0
    0.4218   -2.3243    0.3092 C   0  0  0  0  0  0  0  0  0  0  0  0
   -1.5267   -0.7941    0.3648 C   0  0  0  0  0  0  0  0  0  0  0  0
   -0.7415    1.4961   -0.3895 C   0  0  0  0  0  0  0  0  0  0  0  0
   -0.1848   -1.2256    0.7854 C   0  0  0  0  0  0  0  0  0  0  0  0
   -3.1042    0.8284   -0.5453 C   0  0  0  0  0  0  0  0  0  0  0  0
   -2.6024   -1.6954    0.5204 C   0  0  0  0  0  0  0  0  0  0  0  0
   -3.8894   -1.3341    0.1363 C   0  0  0  0  0  0  0  0  0  0  0  0
   -4.1468   -0.0793   -0.4003 C   0  0  0  0  0  0  0  0  0  0  0  0
   -2.7841    2.7110   -1.1724 H   0  0  0  0  0  0  0  0  0  0  0  0
   -4.6994   -3.0867    0.6722 H   0  0  0  0  0  0  0  0  0  0  0  0
    3.1393    2.6378    0.7877 H   0  0  0  0  0  0  0  0  0  0  0  0
    2.3582    1.1040    1.1981 H   0  0  0  0  0  0  0  0  0  0  0  0
    2.5462    2.2892   -1.5478 H   0  0  0  0  0  0  0  0  0  0  0  0
    1.7601    0.7667   -1.1032 H   0  0  0  0  0  0  0  0  0  0  0  0
    0.8882    3.3768   -0.0612 H   0  0  0  0  0  0  0  0  0  0  0  0
    4.6546    1.2669   -0.6029 H   0  0  0  0  0  0  0  0  0  0  0  0
    4.0426    0.5768   -2.1092 H   0  0  0  0  0  0  0  0  0  0  0  0
    3.7012   -2.0604   -2.0271 H   0  0  0  0  0  0  0  0  0  0  0  0
    2.1567   -1.3480   -1.5017 H   0  0  0  0  0  0  0  0  0  0  0  0
    3.6922   -3.3647    0.0600 H   0  0  0  0  0  0  0  0  0  0  0  0
    2.3199   -3.7074   -1.0326 H   0  0  0  0  0  0  0  0  0  0  0  0
    1.0752    2.6556    2.8685 H   0  0  0  0  0  0  0  0  0  0  0  0
    0.0140    3.8704    2.1969 H   0  0  0  0  0  0  0  0  0  0  0  0
    1.7458    4.0962    2.1420 H   0  0  0  0  0  0  0  0  0  0  0  0
    2.1774   -2.0383    1.4328 H   0  0  0  0  0  0  0  0  0  0  0  0
    1.6395   -3.7249    1.2612 H   0  0  0  0  0  0  0  0  0  0  0  0
   -0.0646   -2.8816   -0.4105 H   0  0  0  0  0  0  0  0  0  0  0  0
    0.3165   -0.6537    1.4830 H   0  0  0  0  0  0  0  0  0  0  0  0
   -2.4321   -2.6304    0.9225 H   0  0  0  0  0  0  0  0  0  0  0  0
   -5.1039    0.1770   -0.6889 H   0  0  0  0  0  0  0  0  0  0  0  0
  1  8  1  0  0  0  0
  1 18  1  0  0  0  0
  2 11  2  0  0  0  0
  3 18  2  0  0  0  0
  4 20  1  0  0  0  0
  4 24  1  0  0  0  0
  5 22  1  0  0  0  0
  5 25  1  0  0  0  0
  6  7  1  0  0  0  0
  6  8  1  0  0  0  0
  6 26  1  0  0  0  0
  6 27  1  0  0  0  0
  7  9  1  0  0  0  0
  7 28  1  0  0  0  0
  7 29  1  0  0  0  0
  8 13  1  0  0  0  0
  8 30  1  6  0  0  0
  9 11  1  0  0  0  0
  9 31  1  0  0  0  0
  9 32  1  0  0  0  0
 10 11  1  0  0  0  0
 10 12  1  0  0  0  0
 10 33  1  0  0  0  0
 10 34  1  0  0  0  0
 12 14  1  0  0  0  0
 12 35  1  0  0  0  0
 12 36  1  0  0  0  0
 13 37  1  0  0  0  0
 13 38  1  0  0  0  0
 13 39  1  0  0  0  0
 14 16  1  0  0  0  0
 14 40  1  0  0  0  0
 14 41  1  0  0  0  0
 15 17  2  0  0  0  0
 15 18  1  0  0  0  0
 15 20  1  0  0  0  0
 16 19  2  0  0  0  0
 16 42  1  0  0  0  0
 17 19  1  0  0  0  0
 17 21  1  0  0  0  0
 19 43  1  0  0  0  0
 20 23  2  0  0  0  0
 21 22  2  0  0  0  0
 21 44  1  0  0  0  0
 22 23  1  0  0  0  0
 23 45  1  0  0  0  0
M  END
>  <PUBCHEM_COMPOUND_CID>
5281576

>  <PUBCHEM_CONFORMER_RMSD>
0.6

>  <PUBCHEM_CONFORMER_DIVERSEORDER>
1

>  <PUBCHEM_MMFF94_PARTIAL_CHARGES>
25
1 -0.43
10 0.06
11 0.45
14 0.14
15 0.09
16 -0.29
17 0.03
18 0.63
19 -0.18
2 -0.57
20 0.08
21 -0.15
22 0.08
23 -0.15
3 -0.57
4 -0.53
40 0.15
41 0.15
42 0.15
43 0.15
44 0.45
45 0.45
5 -0.53
8 0.28
9 0.06

>  <PUBCHEM_EFFECTIVE_ROTOR_COUNT>
1.6

>  <PUBCHEM_PHARMACOPHORE_FEATURES>
5
1 2 acceptor
1 3 acceptor
1 4 donor
1 5 donor
6 15 17 20 21 22 23 rings

>  <PUBCHEM_HEAVY_ATOM_COUNT>
23

>  <PUBCHEM_ATOM_DEF_STEREO_COUNT>
1

>  <PUBCHEM_ATOM_UDEF_STEREO_COUNT>
0

>  <PUBCHEM_BOND_DEF_STEREO_COUNT>
1

>  <PUBCHEM_BOND_UDEF_STEREO_COUNT>
0

>  <PUBCHEM_ISOTOPIC_ATOM_COUNT>
0

>  <PUBCHEM_COMPONENT_COUNT>
1

>  <PUBCHEM_CACTVS_TAUTO_COUNT>
36

>  <PUBCHEM_CONFORMER_ID>
0050972800000001

>  <PUBCHEM_MMFF94_ENERGY>
52.7508

>  <PUBCHEM_FEATURE_SELFOVERLAP>
25.371

>  <PUBCHEM_SHAPE_FINGERPRINT>
1100329 8 17836368142445434529
11112241 14 17272823619695412128
11370993 70 18188494708737088852
11578080 2 14332580929590835105
12166972 35 17967541134254916942
12506688 2 18413110550235260764
12596599 1 17985845738887174774
12788726 201 17627795210409520640
13140716 1 18196088841738688506
13402501 40 18337391659902054306
13533116 47 18057612169113770835
14251757 17 18262796263740525957
14787075 74 18337116764572934030
14790565 3 17617660951997319285
14866123 147 17552088289917708624
14931854 50 18336837390072452670
15196674 1 18334577932310907478
15322687 12 17176570971503756757
17492 54 17970364791730804812
19591789 44 18336827614626795787
19930381 70 18412548695271912982
20028762 73 17044864283739376231
20600515 1 17686304639264777658
20691752 17 17022901237845706993
20715895 44 17682103388255643317
20832881 197 18272097114367915817
20905425 154 18409450249971605006
22182313 1 18115008806593250231
23227448 37 18189050885400438367
23352939 185 18342463629942850051
23557571 272 17911221833476469482
23559900 14 18336824307212198053
238 59 18196350706026204798
2748010 2 18190448553599821473
3323516 105 18411420656528924459
350125 39 18336550426713164321
3524813 1 18335139817054319782
3680242 22 18116715101692902922
463206 1 18124879212021794775
57527585 103 17391111103652193226
59755656 215 18261385720089084103
6443956 14 18340493347433075249
9709674 26 18261402126146937926

>  <PUBCHEM_SHAPE_MULTIPOLES>
443.98
7.96
3.98
1.26
2.99
0.57
-0.14
-3.54
1.66
-1.72
-1.23
-0.47
0.81
1.06

>  <PUBCHEM_SHAPE_SELFOVERLAP>
922.458

>  <PUBCHEM_SHAPE_VOLUME>
250.4

>  <PUBCHEM_COORDINATE_TYPE>
2
5
10

>  <Energy>
33.2959

$$$$
