3589
 OpenBabel09212612393D

 22 24  0  0  1  0  0  0  0  0999 V2000
    0.0767   -2.7665    0.8598 Cl  0  0  0  0  0  0  0  0  0  0  0  0
   -2.0731    1.6759   -1.6595 Cl  0  0  0  0  0  0  0  0  0  0  0  0
   -2.9419   -1.2317    0.0557 Cl  0  0  0  0  0  0  0  0  0  0  0  0
   -1.2353   -1.6795   -2.2221 Cl  0  0  0  0  0  0  0  0  0  0  0  0
    3.8186   -0.8612   -0.4678 Cl  0  0  0  0  0  0  0  0  0  0  0  0
   -0.1198   -0.2991    3.0529 Cl  0  0  0  0  0  0  0  0  0  0  0  0
   -1.4430    2.4454    1.5016 Cl  0  0  0  0  0  0  0  0  0  0  0  0
    1.0955   -0.5932   -0.5266 C   0  0  2  0  0  0  0  0  0  0  0  0
    0.4856    0.6794   -1.2184 C   0  0  1  0  0  0  0  0  0  0  0  0
   -0.1116   -1.1053    0.3245 C   0  0  1  0  0  0  0  0  0  0  0  0
   -0.9899    0.6913   -0.6916 C   0  0  2  0  0  0  0  0  0  0  0  0
   -1.3202   -0.8338   -0.6363 C   0  0  0  0  0  0  0  0  0  0  0  0
    2.3524   -0.1334    0.2296 C   0  0  2  0  0  0  0  0  0  0  0  0
   -0.4328   -0.0869    1.4028 C   0  0  0  0  0  0  0  0  0  0  0  0
   -0.9584    0.9844    0.7970 C   0  0  0  0  0  0  0  0  0  0  0  0
    1.3950    1.7865   -0.7894 C   0  0  0  0  0  0  0  0  0  0  0  0
    2.3903    1.3440   -0.0131 C   0  0  0  0  0  0  0  0  0  0  0  0
    1.4478   -1.3964   -1.1395 H   0  0  0  0  0  0  0  0  0  0  0  0
    0.4311    0.7414   -2.2852 H   0  0  0  0  0  0  0  0  0  0  0  0
    2.3211   -0.4084    1.2631 H   0  0  0  0  0  0  0  0  0  0  0  0
    1.2695    2.7744   -1.0602 H   0  0  0  0  0  0  0  0  0  0  0  0
    3.1161    1.9625    0.3816 H   0  0  0  0  0  0  0  0  0  0  0  0
  3 12  1  0  0  0  0
  4 12  1  0  0  0  0
  5 13  1  0  0  0  0
  6 14  1  0  0  0  0
  7 15  1  0  0  0  0
  8  9  1  0  0  0  0
  8 10  1  0  0  0  0
  8 13  1  0  0  0  0
  8 18  1  6  0  0  0
  9 11  1  0  0  0  0
  9 16  1  0  0  0  0
  9 19  1  6  0  0  0
 10  1  1  1  0  0  0
 10 12  1  0  0  0  0
 10 14  1  0  0  0  0
 11  2  1  6  0  0  0
 11 12  1  0  0  0  0
 11 15  1  0  0  0  0
 13 17  1  0  0  0  0
 13 20  1  1  0  0  0
 14 15  2  0  0  0  0
 16 17  2  0  0  0  0
 16 21  1  0  0  0  0
 17 22  1  0  0  0  0
M  END
>  <PUBCHEM_COMPOUND_CID>
3589

>  <PUBCHEM_CONFORMER_RMSD>
0.4

>  <PUBCHEM_CONFORMER_DIVERSEORDER>
1
8
9
4
7
10
3
2
5
6
11
14
13
12

>  <PUBCHEM_MMFF94_PARTIAL_CHARGES>
16
1 -0.29
10 0.43
11 0.43
12 0.58
13 0.43
16 -0.29
17 -0.29
2 -0.29
21 0.15
22 0.15
3 -0.29
4 -0.29
5 -0.29
6 -0.14
7 -0.14
9 0.14

>  <PUBCHEM_EFFECTIVE_ROTOR_COUNT>
0.4

>  <PUBCHEM_PHARMACOPHORE_FEATURES>
2
5 8 9 13 16 17 rings
7 8 9 10 11 12 14 15 rings

>  <PUBCHEM_HEAVY_ATOM_COUNT>
17

>  <PUBCHEM_ATOM_DEF_STEREO_COUNT>
0

>  <PUBCHEM_ATOM_UDEF_STEREO_COUNT>
5

>  <PUBCHEM_BOND_DEF_STEREO_COUNT>
0

>  <PUBCHEM_BOND_UDEF_STEREO_COUNT>
0

>  <PUBCHEM_ISOTOPIC_ATOM_COUNT>
0

>  <PUBCHEM_COMPONENT_COUNT>
1

>  <PUBCHEM_CACTVS_TAUTO_COUNT>
1

>  <PUBCHEM_CONFORMER_ID>
00000E0500000001

>  <PUBCHEM_MMFF94_ENERGY>
73.8032

>  <PUBCHEM_FEATURE_SELFOVERLAP>
10.323

>  <PUBCHEM_SHAPE_FINGERPRINT>
10702982 57 17914903023727368736
10863032 1 18270402814172833037
10948715 1 17556870113368911088
11578080 2 17629454627111781217
12423570 1 10581848601968960839
12491281 212 18196656185638734600
13024252 1 16950573159583800766
141345 1 11351525244010017769
144361 1 17977078207323300845
14713566 1 18129363939324853220
14817 1 11445713945520296433
16945 1 18046061558186400388
22344851 262 18196946482425309408
22344851 341 18263062393020452197
23419403 2 16268230682939502711
2748010 2 18114170947876868724
369184 2 17775568679981702868
5084963 1 18409453595888174492
528886 8 18115849841797108022
54276843 12 18343016692385572959

>  <PUBCHEM_SHAPE_MULTIPOLES>
362.94
3.62
2.49
2.22
2.72
0.12
-1.07
0.17
0.99
-0.77
-0.11
-0.91
0.05
-0.35

>  <PUBCHEM_SHAPE_SELFOVERLAP>
736.833

>  <PUBCHEM_SHAPE_VOLUME>
209.3

>  <PUBCHEM_COORDINATE_TYPE>
2
5
10

>  <Energy>
81.4802

$$$$
