8572
 OpenBabel09212612393D

 26 27  0  0  0  0  0  0  0  0999 V2000
    0.8893   -0.9965    2.0625 O   0  0  0  0  0  0  0  0  0  0  0  0
   -0.5983   -2.2362   -0.8165 O   0  0  0  0  0  0  0  0  0  0  0  0
    4.6406    1.1286   -0.0450 O   0  0  0  0  0  0  0  0  0  0  0  0
    0.8508   -0.5062   -0.2775 C   0  0  0  0  0  0  0  0  0  0  0  0
   -1.7030   -0.2437   -0.1501 C   0  0  0  0  0  0  0  0  0  0  0  0
   -0.4980   -1.0807   -0.4150 C   0  0  0  0  0  0  0  0  0  0  0  0
    1.5112   -0.4952    0.9545 C   0  0  0  0  0  0  0  0  0  0  0  0
    1.4627    0.0222   -1.4183 C   0  0  0  0  0  0  0  0  0  0  0  0
    2.7941    0.0445    1.0528 C   0  0  0  0  0  0  0  0  0  0  0  0
    2.7375    0.5768   -1.3170 C   0  0  0  0  0  0  0  0  0  0  0  0
   -1.6153    1.1139    0.1864 C   0  0  0  0  0  0  0  0  0  0  0  0
   -2.9652   -0.8378   -0.2807 C   0  0  0  0  0  0  0  0  0  0  0  0
    3.3926    0.5794   -0.0881 C   0  0  0  0  0  0  0  0  0  0  0  0
   -2.7776    1.8649    0.3826 C   0  0  0  0  0  0  0  0  0  0  0  0
   -4.1240   -0.0845   -0.0812 C   0  0  0  0  0  0  0  0  0  0  0  0
   -4.0292    1.2664    0.2479 C   0  0  0  0  0  0  0  0  0  0  0  0
    0.0278   -1.3582    1.9929 H   0  0  0  0  0  0  0  0  0  0  0  0
    5.1153    1.1501    0.7626 H   0  0  0  0  0  0  0  0  0  0  0  0
    0.9747    0.0017   -2.3274 H   0  0  0  0  0  0  0  0  0  0  0  0
    3.2929    0.0480    1.9562 H   0  0  0  0  0  0  0  0  0  0  0  0
    3.1937    0.9835   -2.1486 H   0  0  0  0  0  0  0  0  0  0  0  0
   -0.6904    1.5601    0.2895 H   0  0  0  0  0  0  0  0  0  0  0  0
   -3.0389   -1.8376   -0.5258 H   0  0  0  0  0  0  0  0  0  0  0  0
   -2.7090    2.8650    0.6279 H   0  0  0  0  0  0  0  0  0  0  0  0
   -5.0508   -0.5283   -0.1773 H   0  0  0  0  0  0  0  0  0  0  0  0
   -4.8858    1.8237    0.3918 H   0  0  0  0  0  0  0  0  0  0  0  0
  1  7  1  0  0  0  0
  1 17  1  0  0  0  0
  2  6  2  0  0  0  0
  3 13  1  0  0  0  0
  3 18  1  0  0  0  0
  4  6  1  0  0  0  0
  4  7  2  0  0  0  0
  4  8  1  0  0  0  0
  5  6  1  0  0  0  0
  5 11  2  0  0  0  0
  5 12  1  0  0  0  0
  7  9  1  0  0  0  0
  8 10  2  0  0  0  0
  8 19  1  0  0  0  0
  9 13  2  0  0  0  0
  9 20  1  0  0  0  0
 10 13  1  0  0  0  0
 10 21  1  0  0  0  0
 11 14  1  0  0  0  0
 11 22  1  0  0  0  0
 12 15  2  0  0  0  0
 12 23  1  0  0  0  0
 14 16  2  0  0  0  0
 14 24  1  0  0  0  0
 15 16  1  0  0  0  0
 15 25  1  0  0  0  0
 16 26  1  0  0  0  0
M  END
>  <PUBCHEM_COMPOUND_CID>
8572

>  <PUBCHEM_CONFORMER_RMSD>
0.6

>  <PUBCHEM_CONFORMER_DIVERSEORDER>
1
2

>  <PUBCHEM_MMFF94_PARTIAL_CHARGES>
26
1 -0.53
10 -0.15
11 -0.15
12 -0.15
13 0.08
14 -0.15
15 -0.15
16 -0.15
17 0.15
18 0.15
19 0.15
2 -0.57
20 0.15
21 0.15
22 0.15
23 0.15
24 0.15
25 0.45
26 0.45
3 -0.53
4 0.09
5 0.09
6 0.4
7 0.08
8 -0.15
9 -0.15

>  <PUBCHEM_EFFECTIVE_ROTOR_COUNT>
2

>  <PUBCHEM_PHARMACOPHORE_FEATURES>
5
1 1 donor
1 2 acceptor
1 3 donor
6 4 7 8 9 10 13 rings
6 5 11 12 14 15 16 rings

>  <PUBCHEM_HEAVY_ATOM_COUNT>
16

>  <PUBCHEM_ATOM_DEF_STEREO_COUNT>
0

>  <PUBCHEM_ATOM_UDEF_STEREO_COUNT>
0

>  <PUBCHEM_BOND_DEF_STEREO_COUNT>
0

>  <PUBCHEM_BOND_UDEF_STEREO_COUNT>
0

>  <PUBCHEM_ISOTOPIC_ATOM_COUNT>
0

>  <PUBCHEM_COMPONENT_COUNT>
1

>  <PUBCHEM_CACTVS_TAUTO_COUNT>
12

>  <PUBCHEM_CONFORMER_ID>
0000217C00000001

>  <PUBCHEM_MMFF94_ENERGY>
52.1569

>  <PUBCHEM_FEATURE_SELFOVERLAP>
25.371

>  <PUBCHEM_SHAPE_FINGERPRINT>
10498660 4 18272651195504300297
11031198 65 16487255465124570356
11132069 177 18409172086826233541
11471102 22 15719388430275855244
11578080 2 11527104413425467154
12236239 1 18113896078343425119
12251169 10 15502378945456602072
12788726 201 17393342313456081074
13538477 17 18261666086136109151
13764800 53 18342186544316863323
13965767 371 17901394385325271981
14739800 52 18198324343075022264
15207287 21 13406785640659602921
15309172 13 16298385786006323850
15775835 57 18334295353100444168
16945 1 18339091500145915367
1813 80 17533209757680749698
18186145 218 17346330270904897255
19862831 5 12463569586350464501
200 152 17167855396591486079
201361 129 18187642453791217946
20233049 118 18272086089318813672
204376 136 16805612511670062040
20510252 161 18202570566317063761
20645477 56 18200876279043988076
21524375 3 18333455347717793246
21713013 43 14188993593338775981
22854114 59 16587743139806315697
23048698 100 17821725018411213945
23402539 116 18202275926906816948
23402655 69 14979684260238249905
23526113 38 16916798387266975390
23557571 272 17845376711662503831
23559900 14 17917999356647079102
25 1 16343708715854321582
26918003 58 15357697492002982541
276578 36 18113340790870278754
2838139 119 17916011559878818016
3060560 45 14908172032515721196
4340502 62 17167872941902123417
474 4 17678180605999385108
7364860 26 17913493437147031687
77492 1 18113613508192394983
81228 2 17127021862371433207

>  <PUBCHEM_SHAPE_MULTIPOLES>
311.66
7.41
1.56
1.23
0.37
0.13
0.25
-3.23
-0.01
0.87
-0.03
-0.96
0.2
-0.54

>  <PUBCHEM_SHAPE_SELFOVERLAP>
682.496

>  <PUBCHEM_SHAPE_VOLUME>
168.9

>  <PUBCHEM_COORDINATE_TYPE>
2
5
10

>  <Energy>
62.4806

$$$$
