12310947
 OpenBabel09212612393D

 26 29  0  0  1  0  0  0  0  0999 V2000
    1.1659   -2.7691    0.6616 Cl  0  0  0  0  0  0  0  0  0  0  0  0
    1.1659    2.7695    0.6599 Cl  0  0  0  0  0  0  0  0  0  0  0  0
    3.2708    0.0002    0.7251 Cl  0  0  0  0  0  0  0  0  0  0  0  0
    1.2888    0.0009    2.8128 Cl  0  0  0  0  0  0  0  0  0  0  0  0
    1.1967   -1.7133   -2.4621 Cl  0  0  0  0  0  0  0  0  0  0  0  0
    1.1967    1.7117   -2.4632 Cl  0  0  0  0  0  0  0  0  0  0  0  0
   -0.7825   -0.7937    0.6749 C   0  0  2  0  0  0  0  0  0  0  0  0
   -0.7825    0.7941    0.6744 C   0  0  1  0  0  0  0  0  0  0  0  0
    0.6902   -1.1259    0.2672 C   0  0  1  0  0  0  0  0  0  0  0  0
    0.6902    1.1261    0.2664 C   0  0  2  0  0  0  0  0  0  0  0  0
   -2.0056   -1.1264   -0.2197 C   0  0  2  0  0  0  0  0  0  0  0  0
   -2.0055    1.1262   -0.2205 C   0  0  1  0  0  0  0  0  0  0  0  0
    1.4829    0.0003    1.0221 C   0  0  0  0  0  0  0  0  0  0  0  0
   -2.0674   -0.0004   -1.2582 C   0  0  0  0  0  0  0  0  0  0  0  0
    0.9658   -0.6710   -1.1477 C   0  0  0  0  0  0  0  0  0  0  0  0
    0.9658    0.6702   -1.1481 C   0  0  0  0  0  0  0  0  0  0  0  0
   -3.2185   -0.6714    0.5790 C   0  0  0  0  0  0  0  0  0  0  0  0
   -3.2185    0.6719    0.5785 C   0  0  0  0  0  0  0  0  0  0  0  0
   -0.9424   -1.3910    1.5482 H   0  0  0  0  0  0  0  0  0  0  0  0
   -0.9424    1.3920    1.5473 H   0  0  0  0  0  0  0  0  0  0  0  0
   -1.9659   -2.1388   -0.5638 H   0  0  0  0  0  0  0  0  0  0  0  0
   -1.9657    2.1384   -0.5653 H   0  0  0  0  0  0  0  0  0  0  0  0
   -2.9763   -0.0006   -1.8229 H   0  0  0  0  0  0  0  0  0  0  0  0
   -1.3387   -0.0007   -2.0417 H   0  0  0  0  0  0  0  0  0  0  0  0
   -3.9130   -1.2824    1.0367 H   0  0  0  0  0  0  0  0  0  0  0  0
   -3.9130    1.2831    1.0358 H   0  0  0  0  0  0  0  0  0  0  0  0
  3 13  1  0  0  0  0
  4 13  1  0  0  0  0
  5 15  1  0  0  0  0
  6 16  1  0  0  0  0
  7  8  1  0  0  0  0
  7  9  1  0  0  0  0
  7 11  1  0  0  0  0
  7 19  1  1  0  0  0
  8 10  1  0  0  0  0
  8 12  1  0  0  0  0
  8 20  1  1  0  0  0
  9  1  1  1  0  0  0
  9 13  1  0  0  0  0
  9 15  1  0  0  0  0
 10  2  1  1  0  0  0
 10 13  1  0  0  0  0
 10 16  1  0  0  0  0
 11 14  1  0  0  0  0
 11 17  1  0  0  0  0
 11 21  1  6  0  0  0
 12 14  1  0  0  0  0
 12 18  1  0  0  0  0
 12 22  1  6  0  0  0
 14 23  1  0  0  0  0
 14 24  1  0  0  0  0
 15 16  2  0  0  0  0
 17 18  2  0  0  0  0
 17 25  1  0  0  0  0
 18 26  1  0  0  0  0
M  END
>  <PUBCHEM_COMPOUND_CID>
12310947

>  <PUBCHEM_CONFORMER_RMSD>
0.6

>  <PUBCHEM_CONFORMER_DIVERSEORDER>
1

>  <PUBCHEM_MMFF94_PARTIAL_CHARGES>
15
1 -0.29
10 0.43
11 0.14
12 0.14
13 0.58
17 -0.29
18 -0.29
2 -0.29
25 0.15
26 0.15
3 -0.29
4 -0.29
5 -0.14
6 -0.14
9 0.43

>  <PUBCHEM_EFFECTIVE_ROTOR_COUNT>
0.4

>  <PUBCHEM_PHARMACOPHORE_FEATURES>
2
7 7 8 11 12 14 17 18 rings
7 7 8 9 10 13 15 16 rings

>  <PUBCHEM_HEAVY_ATOM_COUNT>
18

>  <PUBCHEM_ATOM_DEF_STEREO_COUNT>
6

>  <PUBCHEM_ATOM_UDEF_STEREO_COUNT>
0

>  <PUBCHEM_BOND_DEF_STEREO_COUNT>
0

>  <PUBCHEM_BOND_UDEF_STEREO_COUNT>
0

>  <PUBCHEM_ISOTOPIC_ATOM_COUNT>
0

>  <PUBCHEM_COMPONENT_COUNT>
1

>  <PUBCHEM_CACTVS_TAUTO_COUNT>
1

>  <PUBCHEM_CONFORMER_ID>
00BBD9A300000001

>  <PUBCHEM_MMFF94_ENERGY>
106.9417

>  <PUBCHEM_FEATURE_SELFOVERLAP>
10.171

>  <PUBCHEM_SHAPE_FINGERPRINT>
10863032 1 18119240671327585658
10948715 1 15697989782015003779
11578080 2 17757272579178956572
12326174 3 17988641856954223986
12423570 1 12843814384200495910
12524768 44 17773873104229040103
13132413 78 17967808310857997356
144361 1 18122095149568515213
14817 1 17184199876881441388
15881359 60 17327114080616860410
16945 1 18266432408854551195
20511035 2 18120657091512497544
23419403 2 16161802187971770012
23559900 14 16189190765444678534
2748010 2 18055633906707858017
430814 3 17608101071532982069
5084963 1 17458901651691005921
5845 1 16083862331321276044
7364860 26 18408887330119780379
81228 2 16048464314679948822

>  <PUBCHEM_SHAPE_MULTIPOLES>
381.65
3.8
2.31
2.27
2.5
0
-0.58
0
0.77
-1.07
-0.23
-1.43
0
0

>  <PUBCHEM_SHAPE_SELFOVERLAP>
809.019

>  <PUBCHEM_SHAPE_VOLUME>
212.8

>  <PUBCHEM_COORDINATE_TYPE>
2
5
10

>  <Energy>
119.347

$$$$
