93118
 OpenBabel09212612393D

 41 43  0  0  0  0  0  0  0  0999 V2000
    5.4648   -0.8773    0.8517 O   0  0  0  0  0  0  0  0  0  0  0  0
   -3.5578   -4.1475    0.8649 O   0  0  0  0  0  0  0  0  0  0  0  0
   -2.0135    5.0690    0.8365 O   0  0  0  0  0  0  0  0  0  0  0  0
    0.0428   -0.0162   -0.8664 C   0  0  0  0  0  0  0  0  0  0  0  0
    1.5122   -0.2881   -0.4050 C   0  0  0  0  0  0  0  0  0  0  0  0
   -0.9159   -1.1574   -0.3807 C   0  0  0  0  0  0  0  0  0  0  0  0
   -0.4901    1.3804   -0.4027 C   0  0  0  0  0  0  0  0  0  0  0  0
    0.0022    0.0407   -2.4314 C   0  0  0  0  0  0  0  0  0  0  0  0
    1.7993   -0.9733    0.7948 C   0  0  0  0  0  0  0  0  0  0  0  0
   -1.5860   -1.0613    0.8612 C   0  0  0  0  0  0  0  0  0  0  0  0
    0.2791    2.2807    0.3563 C   0  0  0  0  0  0  0  0  0  0  0  0
    2.6155    0.2035   -1.1365 C   0  0  0  0  0  0  0  0  0  0  0  0
   -1.1345   -2.3200   -1.1441 C   0  0  0  0  0  0  0  0  0  0  0  0
   -1.8068    1.7722   -0.7410 C   0  0  0  0  0  0  0  0  0  0  0  0
    3.1144   -1.1828    1.2263 C   0  0  0  0  0  0  0  0  0  0  0  0
   -2.4693   -2.0544    1.2944 C   0  0  0  0  0  0  0  0  0  0  0  0
   -0.2445    3.5135    0.7588 C   0  0  0  0  0  0  0  0  0  0  0  0
    3.9300   -0.0052   -0.7079 C   0  0  0  0  0  0  0  0  0  0  0  0
   -2.0268   -3.3074   -0.7164 C   0  0  0  0  0  0  0  0  0  0  0  0
   -2.3327    2.9989   -0.3311 C   0  0  0  0  0  0  0  0  0  0  0  0
    4.1699   -0.6990    0.4673 C   0  0  0  0  0  0  0  0  0  0  0  0
   -2.6906   -3.1638    0.4935 C   0  0  0  0  0  0  0  0  0  0  0  0
   -1.5432    3.8609    0.4146 C   0  0  0  0  0  0  0  0  0  0  0  0
    5.6592   -1.3423    1.6416 H   0  0  0  0  0  0  0  0  0  0  0  0
   -4.0220   -4.0811    1.6760 H   0  0  0  0  0  0  0  0  0  0  0  0
   -1.4630    5.6363    1.3395 H   0  0  0  0  0  0  0  0  0  0  0  0
    0.3550   -0.8869   -2.8313 H   0  0  0  0  0  0  0  0  0  0  0  0
    0.6270    0.8382   -2.7756 H   0  0  0  0  0  0  0  0  0  0  0  0
   -1.0032    0.2098   -2.7562 H   0  0  0  0  0  0  0  0  0  0  0  0
    1.0193   -1.3292    1.3692 H   0  0  0  0  0  0  0  0  0  0  0  0
   -1.4188   -0.2387    1.4615 H   0  0  0  0  0  0  0  0  0  0  0  0
    1.2443    2.0279    0.6200 H   0  0  0  0  0  0  0  0  0  0  0  0
    2.4475    0.7294   -2.0084 H   0  0  0  0  0  0  0  0  0  0  0  0
   -0.6275   -2.4453   -2.0342 H   0  0  0  0  0  0  0  0  0  0  0  0
   -2.3925    1.1361   -1.3043 H   0  0  0  0  0  0  0  0  0  0  0  0
    3.2976   -1.6941    2.1038 H   0  0  0  0  0  0  0  0  0  0  0  0
   -2.9521   -1.9624    2.2019 H   0  0  0  0  0  0  0  0  0  0  0  0
    0.3347    4.1646    1.3117 H   0  0  0  0  0  0  0  0  0  0  0  0
    4.7194    0.3567   -1.2654 H   0  0  0  0  0  0  0  0  0  0  0  0
   -2.1918   -4.1423   -1.3001 H   0  0  0  0  0  0  0  0  0  0  0  0
   -3.2991    3.2614   -0.5806 H   0  0  0  0  0  0  0  0  0  0  0  0
  1 21  1  0  0  0  0
  1 24  1  0  0  0  0
  2 22  1  0  0  0  0
  2 25  1  0  0  0  0
  3 23  1  0  0  0  0
  3 26  1  0  0  0  0
  4  5  1  0  0  0  0
  4  6  1  0  0  0  0
  4  7  1  0  0  0  0
  4  8  1  0  0  0  0
  5  9  2  0  0  0  0
  5 12  1  0  0  0  0
  6 10  2  0  0  0  0
  6 13  1  0  0  0  0
  7 11  2  0  0  0  0
  7 14  1  0  0  0  0
  8 27  1  0  0  0  0
  8 28  1  0  0  0  0
  8 29  1  0  0  0  0
  9 15  1  0  0  0  0
  9 30  1  0  0  0  0
 10 16  1  0  0  0  0
 10 31  1  0  0  0  0
 11 17  1  0  0  0  0
 11 32  1  0  0  0  0
 12 18  2  0  0  0  0
 12 33  1  0  0  0  0
 13 19  2  0  0  0  0
 13 34  1  0  0  0  0
 14 20  2  0  0  0  0
 14 35  1  0  0  0  0
 15 21  2  0  0  0  0
 15 36  1  0  0  0  0
 16 22  2  0  0  0  0
 16 37  1  0  0  0  0
 17 23  2  0  0  0  0
 17 38  1  0  0  0  0
 18 21  1  0  0  0  0
 18 39  1  0  0  0  0
 19 22  1  0  0  0  0
 19 40  1  0  0  0  0
 20 23  1  0  0  0  0
 20 41  1  0  0  0  0
M  END
>  <PUBCHEM_COMPOUND_CID>
93118

>  <PUBCHEM_CONFORMER_RMSD>
0.6

>  <PUBCHEM_CONFORMER_DIVERSEORDER>
1
2

>  <PUBCHEM_MMFF94_PARTIAL_CHARGES>
37
1 -0.53
10 -0.15
11 -0.15
12 -0.15
13 -0.15
14 -0.15
15 -0.15
16 -0.15
17 -0.15
18 -0.15
19 -0.15
2 -0.53
20 -0.15
21 0.08
22 0.08
23 0.08
27 0.15
28 0.15
29 0.15
3 -0.53
30 0.15
31 0.15
32 0.15
33 0.15
34 0.15
35 0.15
36 0.15
37 0.15
38 0.15
39 0.45
4 0.43
40 0.45
41 0.45
5 -0.14
6 -0.14
7 -0.14
9 -0.15

>  <PUBCHEM_EFFECTIVE_ROTOR_COUNT>
3

>  <PUBCHEM_PHARMACOPHORE_FEATURES>
7
1 1 donor
1 2 donor
1 3 donor
1 8 hydrophobe
6 5 9 12 15 18 21 rings
6 6 10 13 16 19 22 rings
6 7 11 14 17 20 23 rings

>  <PUBCHEM_HEAVY_ATOM_COUNT>
23

>  <PUBCHEM_ATOM_DEF_STEREO_COUNT>
0

>  <PUBCHEM_ATOM_UDEF_STEREO_COUNT>
0

>  <PUBCHEM_BOND_DEF_STEREO_COUNT>
0

>  <PUBCHEM_BOND_UDEF_STEREO_COUNT>
0

>  <PUBCHEM_ISOTOPIC_ATOM_COUNT>
0

>  <PUBCHEM_COMPONENT_COUNT>
1

>  <PUBCHEM_CACTVS_TAUTO_COUNT>
4

>  <PUBCHEM_CONFORMER_ID>
00016BBE00000001

>  <PUBCHEM_MMFF94_ENERGY>
103.9763

>  <PUBCHEM_FEATURE_SELFOVERLAP>
35.522

>  <PUBCHEM_SHAPE_FINGERPRINT>
10090160 65 17833538008290336957
1100329 8 18409727365857547477
11069576 57 12043978408967486400
11578080 2 17825368937421879109
12293681 4 18412257342444830711
12549972 3 17535740034626236083
12553582 1 18195810893294436446
12643181 29 17834684799752070494
12788726 201 18262533557908100874
13004483 165 18338513152798281795
13134695 92 18049160269937990735
13140716 1 18338799025789530145
13149001 5 17976220760316338573
13275264 69 18409167752792697006
13583140 156 17774418527107177434
13955234 65 16971403141200843233
14178342 30 18262786368969605394
14787075 74 18268132185502545605
14790565 3 17184195479236993373
14844126 61 18338218419706129506
15042514 8 18409735049443042883
15420108 30 17268921581418419405
15906896 17 18269264677745980407
16945 1 18337117777989634268
17980427 23 17488193780122659875
17980427 26 17116351226450629717
1813 80 18127141994008762198
20567600 347 17834957469190404561
20587220 46 14095107235449569913
20600515 1 18058191551263991643
20832881 197 18043247049470823387
21033648 29 16987745487419728587
21344244 78 17769094888894025139
21524375 3 17552906335417489564
21731228 192 17905607705403244656
22112679 90 18123495987501573583
22149856 69 17401239698005825241
2255824 54 17404032903139683991
23419403 2 17756673666899714062
23557571 272 18342733006049252962
23558518 356 18123746461309591479
23598288 3 18189072931435809434
283562 15 18260828233070494882
298252 57 16769545042644505844
3091708 16 9132157097712287729
352729 6 18339365171145963500
4340502 62 17614295364264096313
4409770 3 18335419037294441279
474 4 17546724850717728080
58260988 114 17168721721428278362
58807428 26 17618496589138767184
59755656 520 18049717421943654940
6138700 20 16685134263918587006
633830 44 17480287981859513628
6442390 28 17909570371169282713
6786 2 17836373648540513555
7364860 26 17476370864226787871
77188 2 18194401323338956177
81228 2 18410285891645981236
90316 7 18341342187621216531
9981440 41 17905607696681682281

>  <PUBCHEM_SHAPE_MULTIPOLES>
455.72
5.92
5.46
1.43
8.21
4.55
-0.47
-4.27
1.73
-7.8
1.66
0.09
-0.38
-0.11

>  <PUBCHEM_SHAPE_SELFOVERLAP>
1013.038

>  <PUBCHEM_SHAPE_VOLUME>
243.5

>  <PUBCHEM_COORDINATE_TYPE>
2
5
10

>  <Energy>
71.6369

$$$$
