448537
 OpenBabel09212612393D

 40 41  0  0  0  0  0  0  0  0999 V2000
   -5.9916    0.2531   -0.1015 O   0  0  0  0  0  0  0  0  0  0  0  0
    5.9911   -0.2555   -0.1553 O   0  0  0  0  0  0  0  0  0  0  0  0
   -0.4213   -0.5313   -0.1326 C   0  0  0  0  0  0  0  0  0  0  0  0
    0.4201    0.5319   -0.1342 C   0  0  0  0  0  0  0  0  0  0  0  0
   -0.0026   -1.9903   -0.1726 C   0  0  0  0  0  0  0  0  0  0  0  0
    0.0022    1.9907   -0.1749 C   0  0  0  0  0  0  0  0  0  0  0  0
   -1.8838   -0.3320   -0.1343 C   0  0  0  0  0  0  0  0  0  0  0  0
    1.8829    0.3329   -0.1327 C   0  0  0  0  0  0  0  0  0  0  0  0
    0.1804   -2.5946    1.2133 C   0  0  0  0  0  0  0  0  0  0  0  0
   -0.1804    2.5955    1.2110 C   0  0  0  0  0  0  0  0  0  0  0  0
   -2.5790   -0.2338   -1.3466 C   0  0  0  0  0  0  0  0  0  0  0  0
    2.5853    0.2313   -1.3392 C   0  0  0  0  0  0  0  0  0  0  0  0
   -2.5857   -0.2329    1.0733 C   0  0  0  0  0  0  0  0  0  0  0  0
    2.5778    0.2368    1.0806 C   0  0  0  0  0  0  0  0  0  0  0  0
   -3.9620   -0.0369   -1.3518 C   0  0  0  0  0  0  0  0  0  0  0  0
    3.9680    0.0333   -1.3307 C   0  0  0  0  0  0  0  0  0  0  0  0
   -3.9666   -0.0360    1.0687 C   0  0  0  0  0  0  0  0  0  0  0  0
    3.9591    0.0386    1.0891 C   0  0  0  0  0  0  0  0  0  0  0  0
   -4.6426    0.0601   -0.1418 C   0  0  0  0  0  0  0  0  0  0  0  0
    4.6421   -0.0613   -0.1184 C   0  0  0  0  0  0  0  0  0  0  0  0
   -6.4790    0.3224   -0.8988 H   0  0  0  0  0  0  0  0  0  0  0  0
    6.4328   -0.3201   -0.9791 H   0  0  0  0  0  0  0  0  0  0  0  0
    0.9242   -2.0648   -0.7022 H   0  0  0  0  0  0  0  0  0  0  0  0
   -0.7850   -2.5348   -0.6587 H   0  0  0  0  0  0  0  0  0  0  0  0
   -0.9246    2.0654   -0.7045 H   0  0  0  0  0  0  0  0  0  0  0  0
    0.7847    2.5347   -0.6614 H   0  0  0  0  0  0  0  0  0  0  0  0
    0.9583   -2.0726    1.7302 H   0  0  0  0  0  0  0  0  0  0  0  0
    0.4448   -3.6272    1.1201 H   0  0  0  0  0  0  0  0  0  0  0  0
   -0.7334   -2.5086    1.7634 H   0  0  0  0  0  0  0  0  0  0  0  0
   -0.9584    2.0739    1.7281 H   0  0  0  0  0  0  0  0  0  0  0  0
   -0.4444    3.6282    1.1175 H   0  0  0  0  0  0  0  0  0  0  0  0
    0.7334    2.5094    1.7609 H   0  0  0  0  0  0  0  0  0  0  0  0
   -2.0672   -0.3072   -2.2397 H   0  0  0  0  0  0  0  0  0  0  0  0
    2.0807    0.3027   -2.2365 H   0  0  0  0  0  0  0  0  0  0  0  0
   -2.0796   -0.3057    1.9698 H   0  0  0  0  0  0  0  0  0  0  0  0
    2.0650    0.3129    1.9729 H   0  0  0  0  0  0  0  0  0  0  0  0
   -4.4743    0.0359   -2.2447 H   0  0  0  0  0  0  0  0  0  0  0  0
    4.4865   -0.0425   -2.2197 H   0  0  0  0  0  0  0  0  0  0  0  0
   -4.4833    0.0379    1.9589 H   0  0  0  0  0  0  0  0  0  0  0  0
    4.4693   -0.0331    1.9833 H   0  0  0  0  0  0  0  0  0  0  0  0
  1 19  1  0  0  0  0
  1 21  1  0  0  0  0
  2 20  1  0  0  0  0
  2 22  1  0  0  0  0
  3  4  2  0  0  0  0
  3  5  1  0  0  0  0
  3  7  1  0  0  0  0
  4  6  1  0  0  0  0
  4  8  1  0  0  0  0
  5  9  1  0  0  0  0
  5 23  1  0  0  0  0
  5 24  1  0  0  0  0
  6 10  1  0  0  0  0
  6 25  1  0  0  0  0
  6 26  1  0  0  0  0
  7 11  2  0  0  0  0
  7 13  1  0  0  0  0
  8 12  2  0  0  0  0
  8 14  1  0  0  0  0
  9 27  1  0  0  0  0
  9 28  1  0  0  0  0
  9 29  1  0  0  0  0
 10 30  1  0  0  0  0
 10 31  1  0  0  0  0
 10 32  1  0  0  0  0
 11 15  1  0  0  0  0
 11 33  1  0  0  0  0
 12 16  1  0  0  0  0
 12 34  1  0  0  0  0
 13 17  2  0  0  0  0
 13 35  1  0  0  0  0
 14 18  2  0  0  0  0
 14 36  1  0  0  0  0
 15 19  2  0  0  0  0
 15 37  1  0  0  0  0
 16 20  2  0  0  0  0
 16 38  1  0  0  0  0
 17 19  1  0  0  0  0
 17 39  1  0  0  0  0
 18 20  1  0  0  0  0
 18 40  1  0  0  0  0
M  END
>  <PUBCHEM_COMPOUND_CID>
448537

>  <PUBCHEM_CONFORMER_RMSD>
0.6

>  <PUBCHEM_CONFORMER_DIVERSEORDER>
1
3
2

>  <PUBCHEM_MMFF94_PARTIAL_CHARGES>
28
1 -0.53
11 -0.15
12 -0.15
13 -0.15
14 -0.15
15 -0.15
16 -0.15
17 -0.15
18 -0.15
19 0.08
2 -0.53
20 0.08
3 -0.17
31 0.15
32 0.15
33 0.15
34 0.15
35 0.15
36 0.15
37 0.15
38 0.15
39 0.45
4 -0.17
40 0.45
5 0.14
6 0.14
7 0.03
8 0.03

>  <PUBCHEM_EFFECTIVE_ROTOR_COUNT>
4

>  <PUBCHEM_PHARMACOPHORE_FEATURES>
6
1 1 donor
1 10 hydrophobe
1 2 donor
1 9 hydrophobe
6 7 11 13 15 17 19 rings
6 8 12 14 16 18 20 rings

>  <PUBCHEM_HEAVY_ATOM_COUNT>
20

>  <PUBCHEM_ATOM_DEF_STEREO_COUNT>
0

>  <PUBCHEM_ATOM_UDEF_STEREO_COUNT>
0

>  <PUBCHEM_BOND_DEF_STEREO_COUNT>
1

>  <PUBCHEM_BOND_UDEF_STEREO_COUNT>
0

>  <PUBCHEM_ISOTOPIC_ATOM_COUNT>
0

>  <PUBCHEM_COMPONENT_COUNT>
1

>  <PUBCHEM_CACTVS_TAUTO_COUNT>
3

>  <PUBCHEM_CONFORMER_ID>
0006D81900000001

>  <PUBCHEM_MMFF94_ENERGY>
60.231

>  <PUBCHEM_FEATURE_SELFOVERLAP>
30.447

>  <PUBCHEM_SHAPE_FINGERPRINT>
10366900 7 18186514428534874893
104564 63 18339924792832442081
10906281 52 18129397028286092948
11646440 116 18130798871235594657
12592029 89 16950278473467191938
12788726 201 18270697410649816016
13140716 1 18266458895859843337
13533116 47 18340201896197096762
13760787 19 16660644076447957075
14115302 16 18186806919849492430
14341114 176 15647057049052281551
15099037 51 18335139812416525942
15848700 24 18202843262111810220
15848702 151 16988848262958300981
16752209 62 18335696105492573576
16945 1 18410855473013063775
1813 80 18272378572207267076
18186145 218 18338228362096015613
187816 3 18410857663704853992
19141452 34 17131829889222033293
19784866 9 18113613452605694563
200 152 16950282905968490344
20028762 73 18055641861278493167
20600515 1 18340218469921978116
20645477 70 16009301016701038466
21285901 2 17917162606291067244
23175994 123 18333735723499757565
23402539 116 17988639696664490244
23493267 7 17313098635762053785
23557571 272 17489592229515708168
23559900 14 15554438621982335170
266924 87 18194116322357846868
347723 3 18410856551049855057
34934 24 18129105515976021729
3545911 37 15719391732852524422
4072396 5 18261662693185545291
4214541 1 15791727494979709055
465052 167 17240208741576471315
474 4 17917140731779840409
59755656 215 18270402685366324510
633830 44 18342455975941661781
69090 78 17060620005479420895
7226269 152 18410853270196137312
7495541 125 17531535390133293585
77779 3 15719110262139125926
81228 2 18128838385973970688
8272917 22 16660357039657468298
9971528 1 17775283884826915592

>  <PUBCHEM_SHAPE_MULTIPOLES>
399.85
10.42
1.74
1.37
0
0
0.06
0
1.28
0
-0.74
0
0
-0.06

>  <PUBCHEM_SHAPE_SELFOVERLAP>
850.96

>  <PUBCHEM_SHAPE_VOLUME>
224.1

>  <PUBCHEM_COORDINATE_TYPE>
2
5
10

>  <Energy>
28.3633

$$$$
