6238
 OpenBabel09212612393D

 54 57  0  0  1  0  0  0  0  0999 V2000
   -3.4096   -0.1703   -1.9355 O   0  0  0  0  0  0  0  0  0  0  0  0
   -5.3714   -0.1990    0.9379 O   0  0  0  0  0  0  0  0  0  0  0  0
    6.2106   -0.2743   -1.0629 O   0  0  0  0  0  0  0  0  0  0  0  0
   -2.1588   -0.2280    0.1828 C   0  0  1  0  0  0  0  0  0  0  0  0
   -1.2903    0.9594   -0.2902 C   0  0  2  0  0  0  0  0  0  0  0  0
    0.1133    0.9589    0.3239 C   0  0  1  0  0  0  0  0  0  0  0  0
    0.8376   -0.3668   -0.0668 C   0  0  1  0  0  0  0  0  0  0  0  0
   -3.4898    0.1266   -0.5355 C   0  0  1  0  0  0  0  0  0  0  0  0
    2.3109   -0.4461    0.4885 C   0  0  2  0  0  0  0  0  0  0  0  0
   -1.4628   -1.5203   -0.2732 C   0  0  0  0  0  0  0  0  0  0  0  0
   -0.0242   -1.6145    0.2615 C   0  0  0  0  0  0  0  0  0  0  0  0
   -2.1871    2.1730   -0.0604 C   0  0  0  0  0  0  0  0  0  0  0  0
   -3.6075    1.6639   -0.3702 C   0  0  0  0  0  0  0  0  0  0  0  0
    0.9324    2.1651   -0.1530 C   0  0  0  0  0  0  0  0  0  0  0  0
   -2.3659   -0.2654    1.7234 C   0  0  0  0  0  0  0  0  0  0  0  0
    3.0546    0.8510    0.1479 C   0  0  0  0  0  0  0  0  0  0  0  0
    2.3356    2.1458    0.4382 C   0  0  0  0  0  0  0  0  0  0  0  0
    3.0215   -1.6598   -0.1801 C   0  0  0  0  0  0  0  0  0  0  0  0
    2.3432   -0.6308    2.0225 C   0  0  0  0  0  0  0  0  0  0  0  0
   -4.6928   -0.6276    0.0118 C   0  0  0  0  0  0  0  0  0  0  0  0
    4.5352   -1.6398   -0.0314 C   0  0  0  0  0  0  0  0  0  0  0  0
    4.2995    0.8893   -0.3650 C   0  0  0  0  0  0  0  0  0  0  0  0
    5.0991   -0.3442   -0.5598 C   0  0  0  0  0  0  0  0  0  0  0  0
   -5.0286   -1.9348   -0.6656 C   0  0  0  0  0  0  0  0  0  0  0  0
   -2.6510    0.2948   -2.3217 H   0  0  0  0  0  0  0  0  0  0  0  0
   -1.0095    0.9278   -1.3222 H   0  0  0  0  0  0  0  0  0  0  0  0
    0.0227    1.0285    1.3878 H   0  0  0  0  0  0  0  0  0  0  0  0
    0.9488   -0.3605   -1.1310 H   0  0  0  0  0  0  0  0  0  0  0  0
   -1.4366   -1.5406   -1.3426 H   0  0  0  0  0  0  0  0  0  0  0  0
   -2.0161   -2.3501    0.1143 H   0  0  0  0  0  0  0  0  0  0  0  0
   -0.0642   -1.7290    1.3246 H   0  0  0  0  0  0  0  0  0  0  0  0
    0.4370   -2.4524   -0.2183 H   0  0  0  0  0  0  0  0  0  0  0  0
   -1.9191    2.9721   -0.7196 H   0  0  0  0  0  0  0  0  0  0  0  0
   -2.1007    2.5618    0.9327 H   0  0  0  0  0  0  0  0  0  0  0  0
   -4.2704    1.9006    0.4357 H   0  0  0  0  0  0  0  0  0  0  0  0
   -4.0018    2.1218   -1.2533 H   0  0  0  0  0  0  0  0  0  0  0  0
    0.4382    3.0644    0.1500 H   0  0  0  0  0  0  0  0  0  0  0  0
    1.0130    2.1199   -1.2190 H   0  0  0  0  0  0  0  0  0  0  0  0
   -2.8505    0.6345    2.0400 H   0  0  0  0  0  0  0  0  0  0  0  0
   -1.4162   -0.3489    2.2090 H   0  0  0  0  0  0  0  0  0  0  0  0
   -2.9736   -1.1075    1.9812 H   0  0  0  0  0  0  0  0  0  0  0  0
    2.2654    2.2715    1.4985 H   0  0  0  0  0  0  0  0  0  0  0  0
    2.8937    2.9411   -0.0100 H   0  0  0  0  0  0  0  0  0  0  0  0
    2.7845   -1.6573   -1.2235 H   0  0  0  0  0  0  0  0  0  0  0  0
    2.6702   -2.5402    0.3163 H   0  0  0  0  0  0  0  0  0  0  0  0
    1.8569    0.1987    2.4919 H   0  0  0  0  0  0  0  0  0  0  0  0
    3.3591   -0.6830    2.3541 H   0  0  0  0  0  0  0  0  0  0  0  0
    1.8359   -1.5360    2.2835 H   0  0  0  0  0  0  0  0  0  0  0  0
    4.9541   -2.4567   -0.5811 H   0  0  0  0  0  0  0  0  0  0  0  0
    4.7830   -1.7286    1.0057 H   0  0  0  0  0  0  0  0  0  0  0  0
    4.7071    1.8000   -0.6290 H   0  0  0  0  0  0  0  0  0  0  0  0
   -5.8867   -2.3693   -0.1969 H   0  0  0  0  0  0  0  0  0  0  0  0
   -4.1983   -2.6043   -0.5803 H   0  0  0  0  0  0  0  0  0  0  0  0
   -5.2387   -1.7571   -1.6996 H   0  0  0  0  0  0  0  0  0  0  0  0
  1 25  1  0  0  0  0
  2 20  2  0  0  0  0
  3 23  2  0  0  0  0
  4  5  1  0  0  0  0
  4  8  1  0  0  0  0
  4 10  1  0  0  0  0
  4 15  1  1  0  0  0
  5  6  1  0  0  0  0
  5 12  1  0  0  0  0
  5 26  1  6  0  0  0
  6  7  1  0  0  0  0
  6 14  1  0  0  0  0
  6 27  1  1  0  0  0
  7  9  1  0  0  0  0
  7 11  1  0  0  0  0
  7 28  1  6  0  0  0
  8  1  1  6  0  0  0
  8 13  1  0  0  0  0
  8 20  1  0  0  0  0
  9 16  1  0  0  0  0
  9 18  1  0  0  0  0
  9 19  1  1  0  0  0
 10 11  1  0  0  0  0
 10 29  1  0  0  0  0
 10 30  1  0  0  0  0
 11 31  1  0  0  0  0
 11 32  1  0  0  0  0
 12 13  1  0  0  0  0
 12 33  1  0  0  0  0
 12 34  1  0  0  0  0
 13 35  1  0  0  0  0
 13 36  1  0  0  0  0
 14 17  1  0  0  0  0
 14 37  1  0  0  0  0
 14 38  1  0  0  0  0
 15 39  1  0  0  0  0
 15 40  1  0  0  0  0
 15 41  1  0  0  0  0
 16 17  1  0  0  0  0
 16 22  2  0  0  0  0
 17 42  1  0  0  0  0
 17 43  1  0  0  0  0
 18 21  1  0  0  0  0
 18 44  1  0  0  0  0
 18 45  1  0  0  0  0
 19 46  1  0  0  0  0
 19 47  1  0  0  0  0
 19 48  1  0  0  0  0
 20 24  1  0  0  0  0
 21 23  1  0  0  0  0
 21 49  1  0  0  0  0
 21 50  1  0  0  0  0
 22 23  1  0  0  0  0
 22 51  1  0  0  0  0
 24 52  1  0  0  0  0
 24 53  1  0  0  0  0
 24 54  1  0  0  0  0
M  END
>  <PUBCHEM_COMPOUND_CID>
6238

>  <PUBCHEM_CONFORMER_RMSD>
0.6

>  <PUBCHEM_CONFORMER_DIVERSEORDER>
2
1
3

>  <PUBCHEM_MMFF94_PARTIAL_CHARGES>
14
1 -0.68
16 -0.28
17 0.14
2 -0.57
20 0.45
21 0.06
22 -0.14
23 0.49
24 0.06
3 -0.57
48 0.4
51 0.15
8 0.34
9 0.14

>  <PUBCHEM_EFFECTIVE_ROTOR_COUNT>
2.8

>  <PUBCHEM_PHARMACOPHORE_FEATURES>
8
1 1 acceptor
1 1 donor
1 2 acceptor
1 3 acceptor
5 4 5 8 12 13 rings
6 4 5 6 7 10 11 rings
6 6 7 9 14 16 17 rings
6 9 16 18 21 22 23 rings

>  <PUBCHEM_HEAVY_ATOM_COUNT>
24

>  <PUBCHEM_ATOM_DEF_STEREO_COUNT>
6

>  <PUBCHEM_ATOM_UDEF_STEREO_COUNT>
0

>  <PUBCHEM_BOND_DEF_STEREO_COUNT>
0

>  <PUBCHEM_BOND_UDEF_STEREO_COUNT>
0

>  <PUBCHEM_ISOTOPIC_ATOM_COUNT>
0

>  <PUBCHEM_COMPONENT_COUNT>
1

>  <PUBCHEM_CACTVS_TAUTO_COUNT>
10

>  <PUBCHEM_CONFORMER_ID>
0000185E00000002

>  <PUBCHEM_MMFF94_ENERGY>
76.5344

>  <PUBCHEM_FEATURE_SELFOVERLAP>
40.691

>  <PUBCHEM_SHAPE_FINGERPRINT>
10366900 7 17748826332111104673
10498660 4 17458335312913689812
11089746 13 12324242792978281862
12011746 2 18333450945381531151
12166972 35 18059859497207326176
12236239 1 17703795842143676497
12403259 226 18412255147258294705
12403259 415 18342450435228478905
12553582 1 18411688894274068976
12596602 18 16988562433169660522
12633257 1 14117509956827654628
12788726 201 18265049128801663849
12916754 54 18343299301592215905
13140716 1 18122054566301255137
13224815 77 18040713653966921577
13288520 33 18272374161122353445
13533116 47 17988361601764023921
13583140 156 16443349792457939488
13862211 1 18410570687044160562
15196674 1 18410009910017078436
15536298 74 18342733052914241128
15788980 27 18410291393483256532
16752209 62 18338224977777915480
16945 1 18339632412648397697
17349148 13 17989488536778934279
1813 80 18059590061372177052
18186145 218 17967523545904416341
18681886 176 18412542124899825728
19591789 44 18410008806152480558
19862831 5 18335419054353133880
200 152 18131069329072570768
20028762 73 18130781308819831735
20645477 70 18336260245199454124
20871999 31 18335984186076017132
21033648 29 18040985263541254333
21267235 1 18411426119558526438
221357 26 18410853261142082989
221490 88 18337112387884805474
22393880 68 18261944180915360437
22950370 63 18342460335027440485
23402539 116 18342454820347480860
23522609 53 18124629510944445705
23559900 14 18341323478680514593
2871803 45 18186516622535409896
296302 2 13767926814766399688
3004659 81 18188213088253936990
335352 9 18411699877397001821
350125 39 18410859824353524481
4214541 1 18411418380122605965
4280585 95 17476926749497948422
465052 167 18272375312200209599
474 4 17095533937095768252
5104073 3 18411415077192574888
542803 24 17894349968833274103
59755656 215 18408885114354655103
7495541 125 17560797770903790530
9709674 26 18335137647969150201

>  <PUBCHEM_SHAPE_MULTIPOLES>
476.3
11.37
2.15
1.18
2.22
0.55
0.31
-3.17
-2.53
-0.13
-0.12
-0.21
-0.2
-0.08

>  <PUBCHEM_SHAPE_SELFOVERLAP>
1025.436

>  <PUBCHEM_SHAPE_VOLUME>
260.9

>  <PUBCHEM_COORDINATE_TYPE>
2
5
10

>  <Energy>
102.622

$$$$
