26541
 OpenBabel09212612393D

 50 52  0  0  0  0  0  0  0  0999 V2000
   -0.0031   -2.9005    0.5808 O   0  0  0  0  0  0  0  0  0  0  0  0
    0.0030    2.9002    0.5819 O   0  0  0  0  0  0  0  0  0  0  0  0
   -2.4945   -1.3047    0.5517 O   0  0  0  0  0  0  0  0  0  0  0  0
    2.4930   -1.3108    0.5498 O   0  0  0  0  0  0  0  0  0  0  0  0
   -2.4890    1.3088    0.5427 O   0  0  0  0  0  0  0  0  0  0  0  0
    2.4952    1.3036    0.5567 O   0  0  0  0  0  0  0  0  0  0  0  0
   -1.1880   -3.1625    1.3357 C   0  0  0  0  0  0  0  0  0  0  0  0
    1.1849   -3.1687    1.3293 C   0  0  0  0  0  0  0  0  0  0  0  0
   -1.1853    3.1661    1.3302 C   0  0  0  0  0  0  0  0  0  0  0  0
    1.1875    3.1619    1.3379 C   0  0  0  0  0  0  0  0  0  0  0  0
   -2.4092   -2.7303    0.5237 C   0  0  0  0  0  0  0  0  0  0  0  0
    2.4029   -2.7357    0.5131 C   0  0  0  0  0  0  0  0  0  0  0  0
   -2.4029    2.7343    0.5129 C   0  0  0  0  0  0  0  0  0  0  0  0
    2.4086    2.7294    0.5265 C   0  0  0  0  0  0  0  0  0  0  0  0
   -3.4880   -0.7033   -0.1790 C   0  0  0  0  0  0  0  0  0  0  0  0
    3.4870   -0.7083   -0.1790 C   0  0  0  0  0  0  0  0  0  0  0  0
   -3.4852    0.7069   -0.1839 C   0  0  0  0  0  0  0  0  0  0  0  0
    3.4874    0.7023   -0.1751 C   0  0  0  0  0  0  0  0  0  0  0  0
   -4.4786   -1.3939   -0.8858 C   0  0  0  0  0  0  0  0  0  0  0  0
    4.4734   -1.3986   -0.8921 C   0  0  0  0  0  0  0  0  0  0  0  0
   -4.4724    1.3970   -0.8957 C   0  0  0  0  0  0  0  0  0  0  0  0
    4.4746    1.3929   -0.8835 C   0  0  0  0  0  0  0  0  0  0  0  0
    5.4578    0.6930   -1.5881 C   0  0  0  0  0  0  0  0  0  0  0  0
    5.4560   -0.6967   -1.5931 C   0  0  0  0  0  0  0  0  0  0  0  0
   -5.4614   -0.6943   -1.5882 C   0  0  0  0  0  0  0  0  0  0  0  0
   -5.4585    0.6971   -1.5933 C   0  0  0  0  0  0  0  0  0  0  0  0
   -1.1561   -2.6132    2.2534 H   0  0  0  0  0  0  0  0  0  0  0  0
   -1.2523   -4.2086    1.5510 H   0  0  0  0  0  0  0  0  0  0  0  0
    1.2477   -4.2164    1.5372 H   0  0  0  0  0  0  0  0  0  0  0  0
    1.1588   -2.6259    2.2510 H   0  0  0  0  0  0  0  0  0  0  0  0
   -1.2488    4.2134    1.5403 H   0  0  0  0  0  0  0  0  0  0  0  0
   -1.1593    2.6212    2.2507 H   0  0  0  0  0  0  0  0  0  0  0  0
    1.1549    2.6125    2.2556 H   0  0  0  0  0  0  0  0  0  0  0  0
    1.2520    4.2079    1.5538 H   0  0  0  0  0  0  0  0  0  0  0  0
   -2.3068   -3.0654   -0.4873 H   0  0  0  0  0  0  0  0  0  0  0  0
   -3.2963   -3.1576    0.9425 H   0  0  0  0  0  0  0  0  0  0  0  0
    3.2890   -3.1638    0.9333 H   0  0  0  0  0  0  0  0  0  0  0  0
    2.3026   -3.0697   -0.4984 H   0  0  0  0  0  0  0  0  0  0  0  0
   -3.2898    3.1580    0.9358 H   0  0  0  0  0  0  0  0  0  0  0  0
   -2.3045    3.0737   -0.4971 H   0  0  0  0  0  0  0  0  0  0  0  0
    2.3056    3.0629   -0.4849 H   0  0  0  0  0  0  0  0  0  0  0  0
    3.2954    3.1580    0.9446 H   0  0  0  0  0  0  0  0  0  0  0  0
   -4.4826   -2.4259   -0.8879 H   0  0  0  0  0  0  0  0  0  0  0  0
    4.4747   -2.4306   -0.8998 H   0  0  0  0  0  0  0  0  0  0  0  0
   -4.4716    2.4290   -0.9051 H   0  0  0  0  0  0  0  0  0  0  0  0
    4.4775    2.4249   -0.8862 H   0  0  0  0  0  0  0  0  0  0  0  0
    6.1865    1.2091   -2.1056 H   0  0  0  0  0  0  0  0  0  0  0  0
    6.1821   -1.2108   -2.1160 H   0  0  0  0  0  0  0  0  0  0  0  0
   -6.1913   -1.2099   -2.1044 H   0  0  0  0  0  0  0  0  0  0  0  0
   -6.1860    1.2122   -2.1134 H   0  0  0  0  0  0  0  0  0  0  0  0
  1  7  1  0  0  0  0
  1  8  1  0  0  0  0
  2  9  1  0  0  0  0
  2 10  1  0  0  0  0
  3 11  1  0  0  0  0
  3 15  1  0  0  0  0
  4 12  1  0  0  0  0
  4 16  1  0  0  0  0
  5 13  1  0  0  0  0
  5 17  1  0  0  0  0
  6 14  1  0  0  0  0
  6 18  1  0  0  0  0
  7 11  1  0  0  0  0
  7 27  1  0  0  0  0
  7 28  1  0  0  0  0
  8 12  1  0  0  0  0
  8 29  1  0  0  0  0
  8 30  1  0  0  0  0
  9 13  1  0  0  0  0
  9 31  1  0  0  0  0
  9 32  1  0  0  0  0
 10 14  1  0  0  0  0
 10 33  1  0  0  0  0
 10 34  1  0  0  0  0
 11 35  1  0  0  0  0
 11 36  1  0  0  0  0
 12 37  1  0  0  0  0
 12 38  1  0  0  0  0
 13 39  1  0  0  0  0
 13 40  1  0  0  0  0
 14 41  1  0  0  0  0
 14 42  1  0  0  0  0
 15 17  1  0  0  0  0
 15 19  2  0  0  0  0
 16 18  1  0  0  0  0
 16 20  2  0  0  0  0
 17 21  2  0  0  0  0
 18 22  2  0  0  0  0
 19 25  1  0  0  0  0
 19 43  1  0  0  0  0
 20 24  1  0  0  0  0
 20 44  1  0  0  0  0
 21 26  1  0  0  0  0
 21 45  1  0  0  0  0
 22 23  1  0  0  0  0
 22 46  1  0  0  0  0
 23 24  2  0  0  0  0
 23 47  1  0  0  0  0
 24 48  1  0  0  0  0
 25 26  2  0  0  0  0
 25 49  1  0  0  0  0
 26 50  1  0  0  0  0
M  END
>  <PUBCHEM_COMPOUND_CID>
26541

>  <PUBCHEM_CONFORMER_RMSD>
0.6

>  <PUBCHEM_CONFORMER_DIVERSEORDER>
1
10
9
12
11
5
6
13
8
16
4
7
3
15
14
2

>  <PUBCHEM_MMFF94_PARTIAL_CHARGES>
34
1 -0.56
10 0.28
11 0.28
12 0.28
13 0.28
14 0.28
15 0.08
16 0.08
17 0.08
18 0.08
19 -0.15
2 -0.56
20 -0.15
21 -0.15
22 -0.15
23 -0.15
24 -0.15
25 -0.15
26 -0.15
3 -0.36
4 -0.36
43 0.15
44 0.15
45 0.15
46 0.15
47 0.15
48 0.15
49 0.15
5 -0.36
50 0.15
6 -0.36
7 0.28
8 0.28
9 0.28

>  <PUBCHEM_EFFECTIVE_ROTOR_COUNT>
2.8

>  <PUBCHEM_PHARMACOPHORE_FEATURES>
8
1 1 acceptor
1 2 acceptor
1 3 acceptor
1 4 acceptor
1 5 acceptor
1 6 acceptor
6 15 17 19 21 25 26 rings
6 16 18 20 22 23 24 rings

>  <PUBCHEM_HEAVY_ATOM_COUNT>
26

>  <PUBCHEM_ATOM_DEF_STEREO_COUNT>
0

>  <PUBCHEM_ATOM_UDEF_STEREO_COUNT>
0

>  <PUBCHEM_BOND_DEF_STEREO_COUNT>
0

>  <PUBCHEM_BOND_UDEF_STEREO_COUNT>
0

>  <PUBCHEM_ISOTOPIC_ATOM_COUNT>
0

>  <PUBCHEM_COMPONENT_COUNT>
1

>  <PUBCHEM_CACTVS_TAUTO_COUNT>
1

>  <PUBCHEM_CONFORMER_ID>
000067AD00000001

>  <PUBCHEM_MMFF94_ENERGY>
89.1586

>  <PUBCHEM_FEATURE_SELFOVERLAP>
40.633

>  <PUBCHEM_SHAPE_FINGERPRINT>
10498660 4 18335703879220011650
108634 29 18340779216915313982
11513181 2 17913494527900076166
12124843 1 18410573985151452503
12553582 1 18412831265412342305
12769317 202 18261099755975088047
12788726 201 18200031716353286065
13122387 1 18410575119022817755
13402501 40 18338516459832999965
14117953 113 16608283885339964492
14279260 333 18267872688464611814
14395042 70 14969592702391154001
14931854 50 18410292484415493380
15274700 21 18041569135256294779
15322534 239 18411142402935830955
15322687 12 18334848412044596963
15351339 4 18336819810401895323
16067689 391 17769688346316862622
17138139 8 18342173337123817672
17627616 140 18118405046828076650
17909252 39 17775287123817507406
18608769 82 18042413594024198411
20775438 99 17483644047793082455
21054139 6 18338802209246688764
221357 26 18341338893481715574
23559900 14 18339917237995654285
238918 7 17481410995870145560
3298306 158 18337092571449053095
3493558 16 17175766563311078676
354706 35 17185288376508924421
437795 51 18260833705296335619
44344687 77 17549802831464600071
463206 1 18340775861771000192
474144 1 17897429619293392330
508706 21 18044934816555878867
6371009 1 18189602853012064578

>  <PUBCHEM_SHAPE_MULTIPOLES>
499.85
12.6
4.6
1.53
0.01
0
0.25
0
9.43
0
-2.92
0
0
0.02

>  <PUBCHEM_SHAPE_SELFOVERLAP>
1042.253

>  <PUBCHEM_SHAPE_VOLUME>
282.3

>  <PUBCHEM_COORDINATE_TYPE>
2
5
10

>  <Energy>
151.528

$$$$
