69420
 OpenBabel09212612403D

 28 27  0  0  0  0  0  0  0  0999 V2000
    5.5790    0.3096    0.0055 O   0  0  0  0  0  0  0  0  0  0  0  0
   -5.5782   -0.3044    0.0096 O   0  0  0  0  0  0  0  0  0  0  0  0
    0.6413    0.4141   -0.0038 C   0  0  0  0  0  0  0  0  0  0  0  0
   -0.6406   -0.4231   -0.0296 C   0  0  0  0  0  0  0  0  0  0  0  0
    1.8904   -0.4703    0.0100 C   0  0  0  0  0  0  0  0  0  0  0  0
   -1.8873    0.4648   -0.0095 C   0  0  0  0  0  0  0  0  0  0  0  0
    3.1686    0.3666   -0.0221 C   0  0  0  0  0  0  0  0  0  0  0  0
   -3.1686   -0.3677   -0.0184 C   0  0  0  0  0  0  0  0  0  0  0  0
    4.4160   -0.5071    0.0277 C   0  0  0  0  0  0  0  0  0  0  0  0
   -4.4130    0.5100    0.0316 C   0  0  0  0  0  0  0  0  0  0  0  0
    6.3692   -0.2520    0.0375 H   0  0  0  0  0  0  0  0  0  0  0  0
   -6.3672    0.2590    0.0415 H   0  0  0  0  0  0  0  0  0  0  0  0
    0.6390    1.0259    0.8741 H   0  0  0  0  0  0  0  0  0  0  0  0
    0.6664    1.0159   -0.8882 H   0  0  0  0  0  0  0  0  0  0  0  0
   -0.6555   -1.0638    0.8273 H   0  0  0  0  0  0  0  0  0  0  0  0
   -0.6502   -0.9971   -0.9326 H   0  0  0  0  0  0  0  0  0  0  0  0
    1.8725   -1.1109   -0.8468 H   0  0  0  0  0  0  0  0  0  0  0  0
    1.8865   -1.0432    0.9137 H   0  0  0  0  0  0  0  0  0  0  0  0
   -1.8777    1.0972   -0.8726 H   0  0  0  0  0  0  0  0  0  0  0  0
   -1.8710    1.0458    0.8889 H   0  0  0  0  0  0  0  0  0  0  0  0
    3.1729    1.0255    0.8209 H   0  0  0  0  0  0  0  0  0  0  0  0
    3.1836    0.9172   -0.9394 H   0  0  0  0  0  0  0  0  0  0  0  0
   -3.1669   -1.0153    0.8334 H   0  0  0  0  0  0  0  0  0  0  0  0
   -3.1940   -0.9298   -0.9285 H   0  0  0  0  0  0  0  0  0  0  0  0
    4.4071   -1.0876    0.9265 H   0  0  0  0  0  0  0  0  0  0  0  0
    4.4254   -1.1571   -0.8221 H   0  0  0  0  0  0  0  0  0  0  0  0
   -4.4024    1.0905    0.9303 H   0  0  0  0  0  0  0  0  0  0  0  0
   -4.4207    1.1606   -0.8179 H   0  0  0  0  0  0  0  0  0  0  0  0
  1  9  1  0  0  0  0
  1 11  1  0  0  0  0
  2 10  1  0  0  0  0
  2 12  1  0  0  0  0
  3  4  1  0  0  0  0
  3  5  1  0  0  0  0
  3 13  1  0  0  0  0
  3 14  1  0  0  0  0
  4  6  1  0  0  0  0
  4 15  1  0  0  0  0
  4 16  1  0  0  0  0
  5  7  1  0  0  0  0
  5 17  1  0  0  0  0
  5 18  1  0  0  0  0
  6  8  1  0  0  0  0
  6 19  1  0  0  0  0
  6 20  1  0  0  0  0
  7  9  1  0  0  0  0
  7 21  1  0  0  0  0
  7 22  1  0  0  0  0
  8 10  1  0  0  0  0
  8 23  1  0  0  0  0
  8 24  1  0  0  0  0
  9 25  1  0  0  0  0
  9 26  1  0  0  0  0
 10 27  1  0  0  0  0
 10 28  1  0  0  0  0
M  END
>  <PUBCHEM_COMPOUND_CID>
69420

>  <PUBCHEM_CONFORMER_RMSD>
0.6

>  <PUBCHEM_CONFORMER_DIVERSEORDER>
1
155
73
91
141
193
23
38
119
163
27
158
6
174
7
142
162
184
32
2
14
160
172
121
130
57
46
111
36
200
194
180
128
78
169
8
192
34
133
191
88
17
167
74
154
41
183
18
72
182
22
9
92
134
86
15
201
190
124
65
28
16
185
19
157
26
179
146
136
50
144
12
156
123
97
3
21
168
132
120
68
96
153
81
42
39
159
178
47
104
59
90
94
161
71
196
101
66
105
87
143
30
175
177
63
48
85
54
20
187
189
127
89
13
62
145
98
181
60
188
131
49
197
203
10
118
173
80
149
100
61
166
114
151
75
29
31
186
37
139
93
77
5
202
152
176
79
195
44
69
125
25
170
103
112
24
83
43
107
198
137
67
165
102
99
95
4
113
140
122
199
138
40
147
171
164
150
115
11
35
53
52
76
129
148
109
45
55
82
135
64
70
110
56
51
84
126
58
106
108
33
116
117

>  <PUBCHEM_MMFF94_PARTIAL_CHARGES>
6
1 -0.68
10 0.28
2 -0.68
27 0.4
28 0.4
9 0.28

>  <PUBCHEM_EFFECTIVE_ROTOR_COUNT>
7

>  <PUBCHEM_PHARMACOPHORE_FEATURES>
6
1 1 acceptor
1 1 donor
1 2 acceptor
1 2 donor
3 3 5 7 hydrophobe
3 4 6 8 hydrophobe

>  <PUBCHEM_HEAVY_ATOM_COUNT>
10

>  <PUBCHEM_ATOM_DEF_STEREO_COUNT>
0

>  <PUBCHEM_ATOM_UDEF_STEREO_COUNT>
0

>  <PUBCHEM_BOND_DEF_STEREO_COUNT>
0

>  <PUBCHEM_BOND_UDEF_STEREO_COUNT>
0

>  <PUBCHEM_ISOTOPIC_ATOM_COUNT>
0

>  <PUBCHEM_COMPONENT_COUNT>
1

>  <PUBCHEM_CACTVS_TAUTO_COUNT>
1

>  <PUBCHEM_CONFORMER_ID>
00010F2C00000001

>  <PUBCHEM_MMFF94_ENERGY>
0.8868

>  <PUBCHEM_FEATURE_SELFOVERLAP>
30.446

>  <PUBCHEM_SHAPE_FINGERPRINT>
11062470 55 18411419505303537826
14123238 8 18410573980856483860
17834072 33 18342738563014215172
17834076 25 18410575084673647906
187816 3 15482672381367088639
20645477 70 18201160932444691526
20719005 15 18410293605407244708
22485316 2 18410008831975070834
23402539 116 18410848867411404527
366044 4 18407759239769502547
42788 4 18411136931005142432

>  <PUBCHEM_SHAPE_MULTIPOLES>
194.06
12.49
0.78
0.6
0
0
0
-0.03
-0.13
0
0
0
0
-0.02

>  <PUBCHEM_SHAPE_SELFOVERLAP>
341.063

>  <PUBCHEM_SHAPE_VOLUME>
127.5

>  <PUBCHEM_COORDINATE_TYPE>
2
5
10

>  <Energy>
0.634806

$$$$
