3033767
 OpenBabel09212612403D

 59 61  0  0  0  0  0  0  0  0999 V2000
    3.6878    0.4366    1.1327 O   0  0  0  0  0  0  0  0  0  0  0  0
   -4.6952    3.5375    1.6931 O   0  0  0  0  0  0  0  0  0  0  0  0
    7.0468    0.8208   -0.4967 N   0  3  0  0  0  0  0  0  0  0  0  0
   -1.7986    0.0725   -0.1818 C   0  0  0  0  0  0  0  0  0  0  0  0
   -2.3863   -1.1412   -0.3502 C   0  0  0  0  0  0  0  0  0  0  0  0
   -0.3594    0.1741    0.1486 C   0  0  0  0  0  0  0  0  0  0  0  0
   -3.8512   -1.3642   -0.6846 C   0  0  0  0  0  0  0  0  0  0  0  0
   -2.6074    1.3050   -0.3300 C   0  0  0  0  0  0  0  0  0  0  0  0
   -1.6102   -2.3987   -0.2461 C   0  0  0  0  0  0  0  0  0  0  0  0
    0.5729    0.2768   -0.8833 C   0  0  0  0  0  0  0  0  0  0  0  0
    0.0777    0.1776    1.4789 C   0  0  0  0  0  0  0  0  0  0  0  0
   -4.7021   -1.5658    0.5634 C   0  0  0  0  0  0  0  0  0  0  0  0
    2.3749    0.3600    0.7373 C   0  0  0  0  0  0  0  0  0  0  0  0
   -3.2572    1.8448    0.7842 C   0  0  0  0  0  0  0  0  0  0  0  0
   -2.7135    1.9349   -1.5763 C   0  0  0  0  0  0  0  0  0  0  0  0
    1.9323    0.3650   -0.5901 C   0  0  0  0  0  0  0  0  0  0  0  0
    1.4413    0.2693    1.7691 C   0  0  0  0  0  0  0  0  0  0  0  0
   -1.4883   -3.0503    0.9862 C   0  0  0  0  0  0  0  0  0  0  0  0
   -0.9766   -2.9364   -1.3741 C   0  0  0  0  0  0  0  0  0  0  0  0
    6.0456    0.7244    0.5869 C   0  0  0  0  0  0  0  0  0  0  0  0
    4.6171    0.5783    0.0558 C   0  0  0  0  0  0  0  0  0  0  0  0
   -4.0293    2.9938    0.6349 C   0  0  0  0  0  0  0  0  0  0  0  0
   -3.4853    3.0901   -1.7114 C   0  0  0  0  0  0  0  0  0  0  0  0
   -0.7485   -4.2285    1.0894 C   0  0  0  0  0  0  0  0  0  0  0  0
   -0.2327   -4.1128   -1.2678 C   0  0  0  0  0  0  0  0  0  0  0  0
   -4.1476    3.6168   -0.6006 C   0  0  0  0  0  0  0  0  0  0  0  0
   -0.1215   -4.7587   -0.0371 C   0  0  0  0  0  0  0  0  0  0  0  0
    6.8146    1.9805   -1.3613 C   0  0  0  0  0  0  0  0  0  0  0  0
    8.3938    0.8783    0.0697 C   0  0  0  0  0  0  0  0  0  0  0  0
   -4.6347    3.1396    2.5392 H   0  0  0  0  0  0  0  0  0  0  0  0
    6.9537   -0.0144   -1.0749 H   0  0  0  0  0  0  0  0  0  0  0  0
   -3.9351   -2.2333   -1.3030 H   0  0  0  0  0  0  0  0  0  0  0  0
   -4.2095   -0.4913   -1.1890 H   0  0  0  0  0  0  0  0  0  0  0  0
    0.2557    0.2876   -1.8653 H   0  0  0  0  0  0  0  0  0  0  0  0
   -0.6089    0.1123    2.2466 H   0  0  0  0  0  0  0  0  0  0  0  0
   -4.3644   -2.4347    1.0887 H   0  0  0  0  0  0  0  0  0  0  0  0
   -5.7256   -1.6957    0.2800 H   0  0  0  0  0  0  0  0  0  0  0  0
   -4.6136   -0.7087    1.1977 H   0  0  0  0  0  0  0  0  0  0  0  0
   -3.1654    1.3957    1.7088 H   0  0  0  0  0  0  0  0  0  0  0  0
   -2.2210    1.5449   -2.3951 H   0  0  0  0  0  0  0  0  0  0  0  0
    2.6182    0.4345   -1.3581 H   0  0  0  0  0  0  0  0  0  0  0  0
    1.7588    0.2699    2.7511 H   0  0  0  0  0  0  0  0  0  0  0  0
   -1.9477   -2.6574    1.8226 H   0  0  0  0  0  0  0  0  0  0  0  0
   -1.0602   -2.4612   -2.2864 H   0  0  0  0  0  0  0  0  0  0  0  0
    6.1004    1.6105    1.1842 H   0  0  0  0  0  0  0  0  0  0  0  0
    6.2701   -0.1513    1.1594 H   0  0  0  0  0  0  0  0  0  0  0  0
    4.3640    1.4479   -0.5140 H   0  0  0  0  0  0  0  0  0  0  0  0
    4.5670   -0.2965   -0.5582 H   0  0  0  0  0  0  0  0  0  0  0  0
   -3.5663    3.5537   -2.6299 H   0  0  0  0  0  0  0  0  0  0  0  0
   -0.6653   -4.7075    1.9997 H   0  0  0  0  0  0  0  0  0  0  0  0
    0.2351   -4.5045   -2.1002 H   0  0  0  0  0  0  0  0  0  0  0  0
   -4.7239    4.4674   -0.6976 H   0  0  0  0  0  0  0  0  0  0  0  0
    0.4255   -5.6304    0.0399 H   0  0  0  0  0  0  0  0  0  0  0  0
    6.9047    2.8781   -0.7859 H   0  0  0  0  0  0  0  0  0  0  0  0
    5.8316    1.9223   -1.7798 H   0  0  0  0  0  0  0  0  0  0  0  0
    7.5380    1.9881   -2.1497 H   0  0  0  0  0  0  0  0  0  0  0  0
    8.4887    1.7550    0.6756 H   0  0  0  0  0  0  0  0  0  0  0  0
    9.1126    0.9124   -0.7222 H   0  0  0  0  0  0  0  0  0  0  0  0
    8.5656    0.0094    0.6701 H   0  0  0  0  0  0  0  0  0  0  0  0
  1 13  1  0  0  0  0
  1 21  1  0  0  0  0
  2 22  1  0  0  0  0
  2 30  1  0  0  0  0
  3 20  1  0  0  0  0
  3 28  1  0  0  0  0
  3 29  1  0  0  0  0
  3 31  1  0  0  0  0
  4  5  2  0  0  0  0
  4  6  1  0  0  0  0
  4  8  1  0  0  0  0
  5  7  1  0  0  0  0
  5  9  1  0  0  0  0
  6 10  2  0  0  0  0
  6 11  1  0  0  0  0
  7 12  1  0  0  0  0
  7 32  1  0  0  0  0
  7 33  1  0  0  0  0
  8 14  2  0  0  0  0
  8 15  1  0  0  0  0
  9 18  2  0  0  0  0
  9 19  1  0  0  0  0
 10 16  1  0  0  0  0
 10 34  1  0  0  0  0
 11 17  2  0  0  0  0
 11 35  1  0  0  0  0
 12 36  1  0  0  0  0
 12 37  1  0  0  0  0
 12 38  1  0  0  0  0
 13 16  2  0  0  0  0
 13 17  1  0  0  0  0
 14 22  1  0  0  0  0
 14 39  1  0  0  0  0
 15 23  2  0  0  0  0
 15 40  1  0  0  0  0
 16 41  1  0  0  0  0
 17 42  1  0  0  0  0
 18 24  1  0  0  0  0
 18 43  1  0  0  0  0
 19 25  2  0  0  0  0
 19 44  1  0  0  0  0
 20 21  1  0  0  0  0
 20 45  1  0  0  0  0
 20 46  1  0  0  0  0
 21 47  1  0  0  0  0
 21 48  1  0  0  0  0
 22 26  2  0  0  0  0
 23 26  1  0  0  0  0
 23 49  1  0  0  0  0
 24 27  2  0  0  0  0
 24 50  1  0  0  0  0
 25 27  1  0  0  0  0
 25 51  1  0  0  0  0
 26 52  1  0  0  0  0
 27 53  1  0  0  0  0
 28 54  1  0  0  0  0
 28 55  1  0  0  0  0
 28 56  1  0  0  0  0
 29 57  1  0  0  0  0
 29 58  1  0  0  0  0
 29 59  1  0  0  0  0
M  CHG  1   3   1
M  END
>  <PUBCHEM_COMPOUND_CID>
3033767

>  <PUBCHEM_CONFORMER_RMSD>
1

>  <PUBCHEM_CONFORMER_DIVERSEORDER>
7
3
6
11
1
9
16
13
10
12
17
4
8
5
14
15
2

>  <PUBCHEM_MMFF94_PARTIAL_CHARGES>
42
1 -0.36
10 -0.15
11 -0.15
13 0.08
14 -0.15
15 -0.15
16 -0.15
17 -0.15
18 -0.15
19 -0.15
2 -0.53
20 0.27
21 0.28
22 0.08
23 -0.15
24 -0.15
25 -0.15
26 -0.15
27 -0.15
28 0.27
29 0.27
3 -0.81
32 0.15
33 0.15
37 0.15
38 0.15
39 0.15
4 -0.06
40 0.15
41 0.15
42 0.15
47 0.15
48 0.15
49 0.15
5 -0.17
50 0.15
51 0.15
58 0.45
6 0.03
7 0.14
8 0.03
9 0.03

>  <PUBCHEM_EFFECTIVE_ROTOR_COUNT>
8

>  <PUBCHEM_PHARMACOPHORE_FEATURES>
7
1 1 acceptor
1 12 hydrophobe
1 2 donor
1 3 cation
6 6 10 11 13 16 17 rings
6 8 14 15 22 23 26 rings
6 9 18 19 24 25 27 rings

>  <PUBCHEM_HEAVY_ATOM_COUNT>
29

>  <PUBCHEM_ATOM_DEF_STEREO_COUNT>
0

>  <PUBCHEM_ATOM_UDEF_STEREO_COUNT>
0

>  <PUBCHEM_BOND_DEF_STEREO_COUNT>
1

>  <PUBCHEM_BOND_UDEF_STEREO_COUNT>
0

>  <PUBCHEM_ISOTOPIC_ATOM_COUNT>
0

>  <PUBCHEM_COMPONENT_COUNT>
1

>  <PUBCHEM_CACTVS_TAUTO_COUNT>
3

>  <PUBCHEM_CONFORMER_ID>
002E4AA700000007

>  <PUBCHEM_MMFF94_ENERGY>
104.8865

>  <PUBCHEM_FEATURE_SELFOVERLAP>
35.52

>  <PUBCHEM_SHAPE_FINGERPRINT>
10165383 225 18273220768661062017
10369192 42 18337679607316092785
105312 117 18412827962988627900
10675989 125 17909556060623036652
107951 10 18342739593985974430
11445158 3 14346094039613731342
11578080 2 18127423254837877777
12390115 104 18412265012602761065
12788726 201 18265032803778463083
13140716 1 18194398897015191707
133893 2 17614811073802910255
13690498 29 18125720334512147918
13911987 19 18264755585315264357
14251757 5 18265329693403017058
15042514 8 18121499321878631539
15230672 131 18337108957314504310
15324884 4 17174069613337815773
15361156 5 18056478593936729678
15439362 3 17905040352997737749
15463212 79 18261943111721490546
18785283 64 17904762185430350227
21120745 212 17975144454022231604
21756936 100 17603305942869754336
23559900 14 18053657255806121464
24771750 20 18197498424235717878
283562 15 18411410735851056295
3610482 184 17677067836271446044
4015057 19 16271632499444886288
4058900 60 18197505013089797280
5265222 85 18269557298932989566
57527295 17 17274812507085296013
9896288 288 18335144202216156731

>  <PUBCHEM_SHAPE_MULTIPOLES>
580.09
13.65
5.57
1.53
38.53
4.94
-0.06
-13.76
0.99
-7.79
0.64
-0.47
-0.36
-0.49

>  <PUBCHEM_SHAPE_SELFOVERLAP>
1241.396

>  <PUBCHEM_SHAPE_VOLUME>
323.1

>  <PUBCHEM_COORDINATE_TYPE>
2
5
10

>  <Energy>
93.2248

$$$$
