5280378
 OpenBabel09212612403D

 32 34  0  0  0  0  0  0  0  0999 V2000
   -1.7510    1.8499   -0.0543 O   0  0  0  0  0  0  0  0  0  0  0  0
   -0.3062   -1.9678    0.0438 O   0  0  0  0  0  0  0  0  0  0  0  0
    5.7741   -0.1411    0.3077 O   0  0  0  0  0  0  0  0  0  0  0  0
   -6.2196    0.3240   -0.0998 O   0  0  0  0  0  0  0  0  0  0  0  0
    0.1633    0.3678    0.0565 C   0  0  0  0  0  0  0  0  0  0  0  0
   -2.1760   -0.5413   -0.0069 C   0  0  0  0  0  0  0  0  0  0  0  0
    1.6205    0.2339    0.1060 C   0  0  0  0  0  0  0  0  0  0  0  0
   -0.7299   -0.8177    0.0332 C   0  0  0  0  0  0  0  0  0  0  0  0
   -2.6133    0.7818   -0.0476 C   0  0  0  0  0  0  0  0  0  0  0  0
   -0.4043    1.5814    0.0061 C   0  0  0  0  0  0  0  0  0  0  0  0
   -3.0994   -1.5931    0.0004 C   0  0  0  0  0  0  0  0  0  0  0  0
   -3.9787    1.0618   -0.0813 C   0  0  0  0  0  0  0  0  0  0  0  0
    2.2953    0.1865    1.3294 C   0  0  0  0  0  0  0  0  0  0  0  0
    2.3504    0.1597   -1.0838 C   0  0  0  0  0  0  0  0  0  0  0  0
   -4.8929    0.0116   -0.0708 C   0  0  0  0  0  0  0  0  0  0  0  0
   -4.4666   -1.3142   -0.0304 C   0  0  0  0  0  0  0  0  0  0  0  0
    3.6888    0.0579    1.3591 C   0  0  0  0  0  0  0  0  0  0  0  0
    3.7389    0.0345   -1.0511 C   0  0  0  0  0  0  0  0  0  0  0  0
    4.4188   -0.0184    0.1676 C   0  0  0  0  0  0  0  0  0  0  0  0
    6.5163   -0.2260   -0.9056 C   0  0  0  0  0  0  0  0  0  0  0  0
   -6.4892    1.2210   -0.1268 H   0  0  0  0  0  0  0  0  0  0  0  0
    0.2323    2.3937    0.0134 H   0  0  0  0  0  0  0  0  0  0  0  0
   -2.7707   -2.5709    0.0285 H   0  0  0  0  0  0  0  0  0  0  0  0
   -4.3089    2.0390   -0.1138 H   0  0  0  0  0  0  0  0  0  0  0  0
    1.7648    0.2466    2.2126 H   0  0  0  0  0  0  0  0  0  0  0  0
    1.8594    0.1977   -1.9907 H   0  0  0  0  0  0  0  0  0  0  0  0
   -5.1553   -2.0828   -0.0234 H   0  0  0  0  0  0  0  0  0  0  0  0
    4.1810    0.0189    2.2654 H   0  0  0  0  0  0  0  0  0  0  0  0
    4.2686   -0.0196   -1.9351 H   0  0  0  0  0  0  0  0  0  0  0  0
    7.5582   -0.3188   -0.6806 H   0  0  0  0  0  0  0  0  0  0  0  0
    6.3540    0.6584   -1.4856 H   0  0  0  0  0  0  0  0  0  0  0  0
    6.1939   -1.0814   -1.4618 H   0  0  0  0  0  0  0  0  0  0  0  0
  1  9  1  0  0  0  0
  1 10  1  0  0  0  0
  2  8  2  0  0  0  0
  3 19  1  0  0  0  0
  3 20  1  0  0  0  0
  4 15  1  0  0  0  0
  4 21  1  0  0  0  0
  5  7  1  0  0  0  0
  5  8  1  0  0  0  0
  5 10  2  0  0  0  0
  6  8  1  0  0  0  0
  6  9  2  0  0  0  0
  6 11  1  0  0  0  0
  7 13  2  0  0  0  0
  7 14  1  0  0  0  0
  9 12  1  0  0  0  0
 10 22  1  0  0  0  0
 11 16  2  0  0  0  0
 11 23  1  0  0  0  0
 12 15  2  0  0  0  0
 12 24  1  0  0  0  0
 13 17  1  0  0  0  0
 13 25  1  0  0  0  0
 14 18  2  0  0  0  0
 14 26  1  0  0  0  0
 15 16  1  0  0  0  0
 16 27  1  0  0  0  0
 17 19  2  0  0  0  0
 17 28  1  0  0  0  0
 18 19  1  0  0  0  0
 18 29  1  0  0  0  0
 20 30  1  0  0  0  0
 20 31  1  0  0  0  0
 20 32  1  0  0  0  0
M  END
>  <PUBCHEM_COMPOUND_CID>
5280378

>  <PUBCHEM_CONFORMER_RMSD>
0.6

>  <PUBCHEM_CONFORMER_DIVERSEORDER>
1
3
2

>  <PUBCHEM_MMFF94_PARTIAL_CHARGES>
29
1 -0.16
10 -0.07
11 -0.15
12 -0.15
13 -0.15
14 -0.15
15 0.08
16 -0.15
17 -0.15
18 -0.15
19 0.08
2 -0.57
20 0.28
21 0.15
22 0.15
23 0.15
24 0.15
25 0.15
26 0.15
27 0.15
28 0.15
29 0.45
3 -0.36
4 -0.53
5 -0.01
6 0.09
7 0.03
8 0.47
9 0.08

>  <PUBCHEM_EFFECTIVE_ROTOR_COUNT>
2

>  <PUBCHEM_PHARMACOPHORE_FEATURES>
7
1 1 acceptor
1 2 acceptor
1 3 acceptor
1 4 donor
6 1 5 6 8 9 10 rings
6 6 9 11 12 15 16 rings
6 7 13 14 17 18 19 rings

>  <PUBCHEM_HEAVY_ATOM_COUNT>
20

>  <PUBCHEM_ATOM_DEF_STEREO_COUNT>
0

>  <PUBCHEM_ATOM_UDEF_STEREO_COUNT>
0

>  <PUBCHEM_BOND_DEF_STEREO_COUNT>
0

>  <PUBCHEM_BOND_UDEF_STEREO_COUNT>
0

>  <PUBCHEM_ISOTOPIC_ATOM_COUNT>
0

>  <PUBCHEM_COMPONENT_COUNT>
1

>  <PUBCHEM_CACTVS_TAUTO_COUNT>
5

>  <PUBCHEM_CONFORMER_ID>
0050927A00000001

>  <PUBCHEM_MMFF94_ENERGY>
69.8869

>  <PUBCHEM_FEATURE_SELFOVERLAP>
35.55

>  <PUBCHEM_SHAPE_FINGERPRINT>
10 15 17846203489632047242
10968037 39 18260268563801719628
11315181 36 18272938236399514880
11524674 6 16774077375408135742
11963148 33 18335977675297305411
12011746 2 18341608213932619461
12107183 9 17247500488075450992
12236239 1 17676205762745479656
12390115 104 18128825136247983881
12403259 415 18272922813235544288
12403814 3 17385719176207418229
12788726 201 18114740434734052545
13140716 1 18266178512633215401
13288520 33 18411983567927840965
13533116 47 17749100059573462154
13760787 19 17385722517291236259
13862211 1 18410289251007063639
14386348 63 17846501430701051870
15042514 8 18267022941737560159
15048467 5 15864068767349493559
15196674 1 18338233890093452369
16988056 13 14800918680663645876
17804303 29 18340484564720651801
17834072 33 17967533484791003276
18681886 176 18261955245394608416
19141452 34 17632574998288187983
200 152 16443058421871472846
20279233 1 17775290473200836998
21033648 29 17060042723267735888
21267235 1 18337394937379059915
2297311 6 18342745108787220580
23035841 295 18335420153722265594
23175994 123 17131834278668255192
23402539 116 18412821408419991855
23536379 177 16008742494647941109
23557571 272 18201160962097921124
23559900 14 18342454893705127960
26918003 58 16272209708077897143
3004659 81 18260551138907386108
335352 9 18410009949536830845
34797466 226 18272943743486812796
3545911 37 18412545396921295143
4340502 62 15051736417164008125
474 4 16951699193210182236
5104073 3 18338802346469267617
542803 24 17603303756398499606
59755656 215 18341334405277957790
67856867 119 18115875272889889836
69090 78 17346593101650258759
7495541 125 18131349739546420544

>  <PUBCHEM_SHAPE_MULTIPOLES>
388.11
13.23
1.39
0.97
5.2
0.08
-0.12
1.06
1.53
-1.51
0.02
1.27
-0.02
0.15

>  <PUBCHEM_SHAPE_SELFOVERLAP>
860.559

>  <PUBCHEM_SHAPE_VOLUME>
207.3

>  <PUBCHEM_COORDINATE_TYPE>
2
5
10

>  <Energy>
59.0468

$$$$
