104772
 OpenBabel09212612403D

 93 96  0  0  1  0  0  0  0  0999 V2000
    6.2023   -4.5012    1.0433 O   0  0  0  0  0  0  0  0  0  0  0  0
    3.5441    5.9986   -0.6964 O   0  0  0  0  0  0  0  0  0  0  0  0
   -8.5933    0.8643   -0.3203 O   0  0  0  0  0  0  0  0  0  0  0  0
   -7.3244    0.9546    1.6123 N   0  0  0  0  0  0  0  0  0  0  0  0
    3.7725   -1.8637    0.3916 C   0  0  2  0  0  0  0  0  0  0  0  0
    5.2405   -2.2670    0.6360 C   0  0  2  0  0  0  0  0  0  0  0  0
    3.5595   -0.3506    0.5129 C   0  0  1  0  0  0  0  0  0  0  0  0
    4.4142    0.3593   -0.5779 C   0  0  2  0  0  0  0  0  0  0  0  0
    6.1019   -1.6017   -0.4448 C   0  0  0  0  0  0  0  0  0  0  0  0
    5.1010   -3.7964    0.5050 C   0  0  2  0  0  0  0  0  0  0  0  0
    2.9878   -2.8066    1.2993 C   0  0  0  0  0  0  0  0  0  0  0  0
    2.0830    0.0892    0.4476 C   0  0  1  0  0  0  0  0  0  0  0  0
    5.9040   -0.0732   -0.4775 C   0  0  0  0  0  0  0  0  0  0  0  0
    3.7940   -4.1177    1.2569 C   0  0  0  0  0  0  0  0  0  0  0  0
    5.7963   -1.8957    2.0339 C   0  0  0  0  0  0  0  0  0  0  0  0
    4.1895    1.8689   -0.5725 C   0  0  0  0  0  0  0  0  0  0  0  0
    2.0124    1.5951    0.7509 C   0  0  0  0  0  0  0  0  0  0  0  0
    1.3698   -0.2471   -0.8763 C   0  0  0  0  0  0  0  0  0  0  0  0
    3.0362    2.4291    0.0176 C   0  0  0  0  0  0  0  0  0  0  0  0
   -0.1433   -0.3575   -0.6751 C   0  0  0  0  0  0  0  0  0  0  0  0
    5.0791    2.7314   -1.2384 C   0  0  0  0  0  0  0  0  0  0  0  0
    2.8348    3.8213   -0.0167 C   0  0  0  0  0  0  0  0  0  0  0  0
   -0.8411   -0.7198   -1.9828 C   0  0  0  0  0  0  0  0  0  0  0  0
    4.8627    4.1137   -1.2753 C   0  0  0  0  0  0  0  0  0  0  0  0
    3.7433    4.6503   -0.6583 C   0  0  0  0  0  0  0  0  0  0  0  0
   -2.3472   -0.8700   -1.7789 C   0  0  0  0  0  0  0  0  0  0  0  0
   -3.0441   -1.2649   -3.0828 C   0  0  0  0  0  0  0  0  0  0  0  0
   -4.5673   -1.3556   -2.9501 C   0  0  0  0  0  0  0  0  0  0  0  0
   -5.0260   -2.4428   -1.9749 C   0  0  0  0  0  0  0  0  0  0  0  0
   -6.5495   -2.5784   -1.8892 C   0  0  0  0  0  0  0  0  0  0  0  0
   -7.3047   -1.3184   -1.4532 C   0  0  0  0  0  0  0  0  0  0  0  0
   -6.8577   -0.7840   -0.0944 C   0  0  0  0  0  0  0  0  0  0  0  0
   -7.6832    0.4213    0.3659 C   0  0  0  0  0  0  0  0  0  0  0  0
   -6.2337    0.4361    2.4299 C   0  0  0  0  0  0  0  0  0  0  0  0
   -8.0285    2.1124    2.1581 C   0  0  0  0  0  0  0  0  0  0  0  0
   -4.8975    1.0985    2.1003 C   0  0  0  0  0  0  0  0  0  0  0  0
   -3.7573    0.5175    2.9333 C   0  0  0  0  0  0  0  0  0  0  0  0
   -2.4251    1.1466    2.5546 C   0  0  0  0  0  0  0  0  0  0  0  0
    7.0046   -4.2752    0.5472 H   0  0  0  0  0  0  0  0  0  0  0  0
    2.7911    6.3727   -0.2829 H   0  0  0  0  0  0  0  0  0  0  0  0
    3.4135   -1.9929   -0.6080 H   0  0  0  0  0  0  0  0  0  0  0  0
    3.8803   -0.0580    1.4909 H   0  0  0  0  0  0  0  0  0  0  0  0
    4.0845    0.0388   -1.5441 H   0  0  0  0  0  0  0  0  0  0  0  0
    5.8333   -2.0057   -1.3985 H   0  0  0  0  0  0  0  0  0  0  0  0
    7.1289   -1.7983   -0.2180 H   0  0  0  0  0  0  0  0  0  0  0  0
    5.0777   -4.1033   -0.5198 H   0  0  0  0  0  0  0  0  0  0  0  0
    1.9964   -2.9571    0.9260 H   0  0  0  0  0  0  0  0  0  0  0  0
    2.8741   -2.4241    2.2921 H   0  0  0  0  0  0  0  0  0  0  0  0
    1.5500   -0.4759    1.1834 H   0  0  0  0  0  0  0  0  0  0  0  0
    6.3168    0.3406    0.4187 H   0  0  0  0  0  0  0  0  0  0  0  0
    6.3956    0.2882   -1.3565 H   0  0  0  0  0  0  0  0  0  0  0  0
    4.0103   -4.4521    2.2500 H   0  0  0  0  0  0  0  0  0  0  0  0
    3.2456   -4.8964    0.7693 H   0  0  0  0  0  0  0  0  0  0  0  0
    5.8878   -0.8324    2.1105 H   0  0  0  0  0  0  0  0  0  0  0  0
    6.7574   -2.3469    2.1669 H   0  0  0  0  0  0  0  0  0  0  0  0
    5.1276   -2.2516    2.7897 H   0  0  0  0  0  0  0  0  0  0  0  0
    2.1603    1.7319    1.8018 H   0  0  0  0  0  0  0  0  0  0  0  0
    1.0520    1.9286    0.4174 H   0  0  0  0  0  0  0  0  0  0  0  0
    1.7420   -1.1794   -1.2466 H   0  0  0  0  0  0  0  0  0  0  0  0
    1.5629    0.5396   -1.5755 H   0  0  0  0  0  0  0  0  0  0  0  0
   -0.5197    0.5811   -0.3254 H   0  0  0  0  0  0  0  0  0  0  0  0
   -0.3377   -1.1282    0.0412 H   0  0  0  0  0  0  0  0  0  0  0  0
    5.9083    2.3369   -1.7093 H   0  0  0  0  0  0  0  0  0  0  0  0
    2.0039    4.2293    0.4395 H   0  0  0  0  0  0  0  0  0  0  0  0
   -0.4438   -1.6443   -2.3466 H   0  0  0  0  0  0  0  0  0  0  0  0
   -0.6704    0.0663   -2.6884 H   0  0  0  0  0  0  0  0  0  0  0  0
    5.5334    4.7306   -1.7596 H   0  0  0  0  0  0  0  0  0  0  0  0
   -2.7479    0.0613   -1.4368 H   0  0  0  0  0  0  0  0  0  0  0  0
   -2.5166   -1.6409   -1.0565 H   0  0  0  0  0  0  0  0  0  0  0  0
   -2.6723   -2.2195   -3.3914 H   0  0  0  0  0  0  0  0  0  0  0  0
   -2.8328   -0.4997   -3.8003 H   0  0  0  0  0  0  0  0  0  0  0  0
   -4.9803   -1.5677   -3.9141 H   0  0  0  0  0  0  0  0  0  0  0  0
   -4.9083   -0.4181   -2.5631 H   0  0  0  0  0  0  0  0  0  0  0  0
   -4.6512   -2.2055   -1.0012 H   0  0  0  0  0  0  0  0  0  0  0  0
   -4.6455   -3.3745   -2.3382 H   0  0  0  0  0  0  0  0  0  0  0  0
   -6.7716   -3.3545   -1.1869 H   0  0  0  0  0  0  0  0  0  0  0  0
   -6.8804   -2.7871   -2.8852 H   0  0  0  0  0  0  0  0  0  0  0  0
   -8.3481   -1.5495   -1.4004 H   0  0  0  0  0  0  0  0  0  0  0  0
   -7.0953   -0.5582   -2.1765 H   0  0  0  0  0  0  0  0  0  0  0  0
   -5.8311   -0.4901   -0.1627 H   0  0  0  0  0  0  0  0  0  0  0  0
   -6.9979   -1.5654    0.6230 H   0  0  0  0  0  0  0  0  0  0  0  0
   -6.1469   -0.6168    2.2603 H   0  0  0  0  0  0  0  0  0  0  0  0
   -6.4614    0.6494    3.4534 H   0  0  0  0  0  0  0  0  0  0  0  0
   -8.8039    2.4090    1.4831 H   0  0  0  0  0  0  0  0  0  0  0  0
   -7.3394    2.9207    2.2871 H   0  0  0  0  0  0  0  0  0  0  0  0
   -8.4579    1.8554    3.1039 H   0  0  0  0  0  0  0  0  0  0  0  0
   -4.9723    2.1473    2.2990 H   0  0  0  0  0  0  0  0  0  0  0  0
   -4.6817    0.9177    1.0681 H   0  0  0  0  0  0  0  0  0  0  0  0
   -3.7052   -0.5380    2.7660 H   0  0  0  0  0  0  0  0  0  0  0  0
   -3.9501    0.7263    3.9649 H   0  0  0  0  0  0  0  0  0  0  0  0
   -2.2165    0.9471    1.5243 H   0  0  0  0  0  0  0  0  0  0  0  0
   -1.6488    0.7312    3.1626 H   0  0  0  0  0  0  0  0  0  0  0  0
   -2.4728    2.2041    2.7105 H   0  0  0  0  0  0  0  0  0  0  0  0
  1 10  1  0  0  0  0
  1 39  1  0  0  0  0
  2 25  1  0  0  0  0
  2 40  1  0  0  0  0
  3 33  2  0  0  0  0
  4 33  1  0  0  0  0
  4 34  1  0  0  0  0
  4 35  1  0  0  0  0
  5  6  1  0  0  0  0
  5  7  1  0  0  0  0
  5 11  1  0  0  0  0
  5 41  1  6  0  0  0
  6  9  1  0  0  0  0
  6 10  1  0  0  0  0
  6 15  1  1  0  0  0
  7  8  1  0  0  0  0
  7 12  1  0  0  0  0
  7 42  1  1  0  0  0
  8 13  1  0  0  0  0
  8 16  1  0  0  0  0
  8 43  1  6  0  0  0
  9 13  1  0  0  0  0
  9 44  1  0  0  0  0
  9 45  1  0  0  0  0
 10 14  1  0  0  0  0
 10 46  1  6  0  0  0
 11 14  1  0  0  0  0
 11 47  1  0  0  0  0
 11 48  1  0  0  0  0
 12 17  1  0  0  0  0
 12 18  1  0  0  0  0
 12 49  1  1  0  0  0
 13 50  1  0  0  0  0
 13 51  1  0  0  0  0
 14 52  1  0  0  0  0
 14 53  1  0  0  0  0
 15 54  1  0  0  0  0
 15 55  1  0  0  0  0
 15 56  1  0  0  0  0
 16 19  2  0  0  0  0
 16 21  1  0  0  0  0
 17 19  1  0  0  0  0
 17 57  1  0  0  0  0
 17 58  1  0  0  0  0
 18 20  1  0  0  0  0
 18 59  1  0  0  0  0
 18 60  1  0  0  0  0
 19 22  1  0  0  0  0
 20 23  1  0  0  0  0
 20 61  1  0  0  0  0
 20 62  1  0  0  0  0
 21 24  2  0  0  0  0
 21 63  1  0  0  0  0
 22 25  2  0  0  0  0
 22 64  1  0  0  0  0
 23 26  1  0  0  0  0
 23 65  1  0  0  0  0
 23 66  1  0  0  0  0
 24 25  1  0  0  0  0
 24 67  1  0  0  0  0
 26 27  1  0  0  0  0
 26 68  1  0  0  0  0
 26 69  1  0  0  0  0
 27 28  1  0  0  0  0
 27 70  1  0  0  0  0
 27 71  1  0  0  0  0
 28 29  1  0  0  0  0
 28 72  1  0  0  0  0
 28 73  1  0  0  0  0
 29 30  1  0  0  0  0
 29 74  1  0  0  0  0
 29 75  1  0  0  0  0
 30 31  1  0  0  0  0
 30 76  1  0  0  0  0
 30 77  1  0  0  0  0
 31 32  1  0  0  0  0
 31 78  1  0  0  0  0
 31 79  1  0  0  0  0
 32 33  1  0  0  0  0
 32 80  1  0  0  0  0
 32 81  1  0  0  0  0
 34 36  1  0  0  0  0
 34 82  1  0  0  0  0
 34 83  1  0  0  0  0
 35 84  1  0  0  0  0
 35 85  1  0  0  0  0
 35 86  1  0  0  0  0
 36 37  1  0  0  0  0
 36 87  1  0  0  0  0
 36 88  1  0  0  0  0
 37 38  1  0  0  0  0
 37 89  1  0  0  0  0
 37 90  1  0  0  0  0
 38 91  1  0  0  0  0
 38 92  1  0  0  0  0
 38 93  1  0  0  0  0
M  END
>  <PUBCHEM_COMPOUND_CID>
104772

>  <PUBCHEM_CONFORMER_RMSD>
1.4

>  <PUBCHEM_CONFORMER_DIVERSEORDER>
3
61
69
85
87
173
43
93
161
33
38
86
144
182
28
199
95
14
122
157
166
53
139
102
133
92
152
134
39
57
193
72
99
21
78
109
159
31
49
104
19
167
127
191
169
164
155
202
27
30
160
96
158
12
1
101
44
185
25
82
83
116
190
171
170
153
16
98
163
177
89
137
123
197
186
148
42
178
113
91
189
183
130
35
180
110
47
52
150
145
198
74
29
56
141
100
54
4
64
18
94
70
135
131
105
187
172
136
168
112
147
120
9
174
154
32
124
119
68
196
114
65
125
22
10
165
115
71
77
81
36
66
179
97
62
60
142
23
132
121
15
84
67
156
37
108
48
146
106
138
143
107
76
2
140
80
151
50
46
90
45
63
188
59
58
24
5
194
13
195
79
75
51
20
128
175
184
40
34
200
55
118
201
149
26
6
126
181
88
17
192
103
41
129
11
111
176
8
7
162
73
117

>  <PUBCHEM_MMFF94_PARTIAL_CHARGES>
22
1 -0.68
10 0.28
16 -0.14
17 0.14
19 -0.14
2 -0.53
21 -0.15
22 -0.15
24 -0.15
25 0.08
3 -0.57
32 0.06
33 0.57
34 0.3
35 0.3
4 -0.66
59 0.4
62 0.15
63 0.15
66 0.15
69 0.45
8 0.14

>  <PUBCHEM_EFFECTIVE_ROTOR_COUNT>
16.4

>  <PUBCHEM_PHARMACOPHORE_FEATURES>
9
1 1 acceptor
1 1 donor
1 2 donor
1 3 acceptor
1 38 hydrophobe
5 5 6 10 11 14 rings
6 16 19 21 22 24 25 rings
6 5 6 7 8 9 13 rings
6 7 8 12 16 17 19 rings

>  <PUBCHEM_HEAVY_ATOM_COUNT>
38

>  <PUBCHEM_ATOM_DEF_STEREO_COUNT>
6

>  <PUBCHEM_ATOM_UDEF_STEREO_COUNT>
0

>  <PUBCHEM_BOND_DEF_STEREO_COUNT>
0

>  <PUBCHEM_BOND_UDEF_STEREO_COUNT>
0

>  <PUBCHEM_ISOTOPIC_ATOM_COUNT>
0

>  <PUBCHEM_COMPONENT_COUNT>
1

>  <PUBCHEM_CACTVS_TAUTO_COUNT>
9

>  <PUBCHEM_CONFORMER_ID>
0001994400000003

>  <PUBCHEM_MMFF94_ENERGY>
88.7096

>  <PUBCHEM_FEATURE_SELFOVERLAP>
45.768

>  <PUBCHEM_SHAPE_FINGERPRINT>
10675989 125 18195238052479783884
11115154 58 17917438657468023948
11828532 37 14779266402309953486
12522641 24 18335131029329939934
13782708 43 17313656040997501090
14415360 78 18115030826442469770
15276724 80 18336256921301177301
15328684 2 18060136548879684363
15328829 1 18202566180701819211
15773879 134 18261117379080082619
21792964 463 18266469874483073941
21792965 184 17916861319453561922
22033318 11 18200881677865202857
23522609 53 18271252728488083357
4197921 191 18271522117816946583
44555599 121 18342740745517030205
58902169 19 18342178817639458923

>  <PUBCHEM_SHAPE_MULTIPOLES>
759.43
24.41
5.91
2.87
45.96
4.27
-0.16
-3.13
-3.91
-14.06
0.47
5.86
-0.63
-9.61

>  <PUBCHEM_SHAPE_SELFOVERLAP>
1552.759

>  <PUBCHEM_SHAPE_VOLUME>
437.8

>  <PUBCHEM_COORDINATE_TYPE>
2
5
10

>  <Energy>
55.2013

$$$$
