7245
 OpenBabel09212612403D

 13 13  0  0  0  0  0  0  0  0999 V2000
    2.2707   -1.2268    0.0003 Cl  0  0  0  0  0  0  0  0  0  0  0  0
    1.4937    1.6859    0.0002 O   0  0  0  0  0  0  0  0  0  0  0  0
    0.4575    0.7927    0.0001 C   0  0  0  0  0  0  0  0  0  0  0  0
    0.6692   -0.5880    0.0002 C   0  0  0  0  0  0  0  0  0  0  0  0
   -0.8351    1.3073   -0.0000 C   0  0  0  0  0  0  0  0  0  0  0  0
   -0.4187   -1.4601    0.0002 C   0  0  0  0  0  0  0  0  0  0  0  0
   -1.9248    0.4349    0.0001 C   0  0  0  0  0  0  0  0  0  0  0  0
   -1.7177   -0.9465    0.0001 C   0  0  0  0  0  0  0  0  0  0  0  0
    2.3784    1.3771    0.0003 H   0  0  0  0  0  0  0  0  0  0  0  0
   -0.9874    2.3280   -0.0003 H   0  0  0  0  0  0  0  0  0  0  0  0
   -0.2649   -2.4805    0.0002 H   0  0  0  0  0  0  0  0  0  0  0  0
   -2.8857    0.8114    0.0003 H   0  0  0  0  0  0  0  0  0  0  0  0
   -2.5257   -1.5886    0.0001 H   0  0  0  0  0  0  0  0  0  0  0  0
  1  4  1  0  0  0  0
  2  3  1  0  0  0  0
  2  9  1  0  0  0  0
  3  4  1  0  0  0  0
  3  5  2  0  0  0  0
  4  6  2  0  0  0  0
  5  7  1  0  0  0  0
  5 10  1  0  0  0  0
  6  8  1  0  0  0  0
  6 11  1  0  0  0  0
  7  8  2  0  0  0  0
  7 12  1  0  0  0  0
  8 13  1  0  0  0  0
M  END
>  <PUBCHEM_COMPOUND_CID>
7245

>  <PUBCHEM_CONFORMER_RMSD>
0.4

>  <PUBCHEM_CONFORMER_DIVERSEORDER>
1

>  <PUBCHEM_MMFF94_PARTIAL_CHARGES>
13
1 -0.18
10 0.15
11 0.15
12 0.15
13 0.45
2 -0.53
3 0.08
4 0.18
5 -0.15
6 -0.15
7 -0.15
8 -0.15
9 0.15

>  <PUBCHEM_EFFECTIVE_ROTOR_COUNT>
0

>  <PUBCHEM_PHARMACOPHORE_FEATURES>
2
1 2 donor
6 3 4 5 6 7 8 rings

>  <PUBCHEM_HEAVY_ATOM_COUNT>
8

>  <PUBCHEM_ATOM_DEF_STEREO_COUNT>
0

>  <PUBCHEM_ATOM_UDEF_STEREO_COUNT>
0

>  <PUBCHEM_BOND_DEF_STEREO_COUNT>
0

>  <PUBCHEM_BOND_UDEF_STEREO_COUNT>
0

>  <PUBCHEM_ISOTOPIC_ATOM_COUNT>
0

>  <PUBCHEM_COMPONENT_COUNT>
1

>  <PUBCHEM_CACTVS_TAUTO_COUNT>
3

>  <PUBCHEM_CONFORMER_ID>
00001C4D00000001

>  <PUBCHEM_MMFF94_ENERGY>
16.4463

>  <PUBCHEM_FEATURE_SELFOVERLAP>
10.148

>  <PUBCHEM_SHAPE_FINGERPRINT>
16714656 1 18122909724492004302
16945 1 18338797797508069575
18185500 45 18192430762273758907
21040471 1 18266740371016090181
23552423 10 18261395606365074310
2748010 2 18409728503896786815
29004967 10 18266746774643556138
5084963 1 18201714025030917099

>  <PUBCHEM_SHAPE_MULTIPOLES>
160.64
2.61
1.81
0.61
0.74
0.35
0
-0.5
0
0.2
0
0
-0.03
0

>  <PUBCHEM_SHAPE_SELFOVERLAP>
324.963

>  <PUBCHEM_SHAPE_VOLUME>
94.6

>  <PUBCHEM_COORDINATE_TYPE>
2
5
10

>  <Energy>
19.0133

$$$$
