7705
 OpenBabel09212612393D

 24 24  0  0  0  0  0  0  0  0999 V2000
    1.9565   -0.0231    0.2161 C   0  0  0  0  0  0  0  0  0  0  0  0
    0.9578   -0.0335   -0.9414 C   0  0  0  0  0  0  0  0  0  0  0  0
    3.3926   -0.0083   -0.3051 C   0  0  0  0  0  0  0  0  0  0  0  0
   -0.4636   -0.0143   -0.4460 C   0  0  0  0  0  0  0  0  0  0  0  0
    4.3968    0.0397    0.8334 C   0  0  0  0  0  0  0  0  0  0  0  0
   -1.1377   -1.2130   -0.1822 C   0  0  0  0  0  0  0  0  0  0  0  0
   -1.1171    1.2046   -0.2194 C   0  0  0  0  0  0  0  0  0  0  0  0
   -2.4500   -1.1932    0.2851 C   0  0  0  0  0  0  0  0  0  0  0  0
   -2.4296    1.2223    0.2489 C   0  0  0  0  0  0  0  0  0  0  0  0
   -3.0950    0.0244    0.5006 C   0  0  0  0  0  0  0  0  0  0  0  0
    1.8095   -0.8982    0.8139 H   0  0  0  0  0  0  0  0  0  0  0  0
    1.7949    0.8589    0.7999 H   0  0  0  0  0  0  0  0  0  0  0  0
    1.1106   -0.9178   -1.5241 H   0  0  0  0  0  0  0  0  0  0  0  0
    1.1190    0.8447   -1.5310 H   0  0  0  0  0  0  0  0  0  0  0  0
    3.5287    0.8529   -0.9254 H   0  0  0  0  0  0  0  0  0  0  0  0
    3.5576   -0.9076   -0.8610 H   0  0  0  0  0  0  0  0  0  0  0  0
    4.2481    0.9334    1.4026 H   0  0  0  0  0  0  0  0  0  0  0  0
    5.3894    0.0321    0.4341 H   0  0  0  0  0  0  0  0  0  0  0  0
    4.2602   -0.8127    1.4656 H   0  0  0  0  0  0  0  0  0  0  0  0
   -0.6603   -2.1152   -0.3347 H   0  0  0  0  0  0  0  0  0  0  0  0
   -0.6242    2.0930   -0.4002 H   0  0  0  0  0  0  0  0  0  0  0  0
   -2.9448   -2.0794    0.4719 H   0  0  0  0  0  0  0  0  0  0  0  0
   -2.9084    2.1224    0.4093 H   0  0  0  0  0  0  0  0  0  0  0  0
   -4.0669    0.0380    0.8471 H   0  0  0  0  0  0  0  0  0  0  0  0
  1  2  1  0  0  0  0
  1  3  1  0  0  0  0
  1 11  1  0  0  0  0
  1 12  1  0  0  0  0
  2  4  1  0  0  0  0
  2 13  1  0  0  0  0
  2 14  1  0  0  0  0
  3  5  1  0  0  0  0
  3 15  1  0  0  0  0
  3 16  1  0  0  0  0
  4  6  2  0  0  0  0
  4  7  1  0  0  0  0
  5 17  1  0  0  0  0
  5 18  1  0  0  0  0
  5 19  1  0  0  0  0
  6  8  1  0  0  0  0
  6 20  1  0  0  0  0
  7  9  2  0  0  0  0
  7 21  1  0  0  0  0
  8 10  2  0  0  0  0
  8 22  1  0  0  0  0
  9 10  1  0  0  0  0
  9 23  1  0  0  0  0
 10 24  1  0  0  0  0
M  END
>  <PUBCHEM_COMPOUND_CID>
7705

>  <PUBCHEM_CONFORMER_RMSD>
0.6

>  <PUBCHEM_CONFORMER_DIVERSEORDER>
1
4
5
2
3

>  <PUBCHEM_MMFF94_PARTIAL_CHARGES>
12
10 -0.15
2 0.14
20 0.15
21 0.15
22 0.15
23 0.15
24 0.15
4 -0.14
6 -0.15
7 -0.15
8 -0.15
9 -0.15

>  <PUBCHEM_EFFECTIVE_ROTOR_COUNT>
3

>  <PUBCHEM_PHARMACOPHORE_FEATURES>
2
1 5 hydrophobe
6 4 6 7 8 9 10 rings

>  <PUBCHEM_HEAVY_ATOM_COUNT>
10

>  <PUBCHEM_ATOM_DEF_STEREO_COUNT>
0

>  <PUBCHEM_ATOM_UDEF_STEREO_COUNT>
0

>  <PUBCHEM_BOND_DEF_STEREO_COUNT>
0

>  <PUBCHEM_BOND_UDEF_STEREO_COUNT>
0

>  <PUBCHEM_ISOTOPIC_ATOM_COUNT>
0

>  <PUBCHEM_COMPONENT_COUNT>
1

>  <PUBCHEM_CACTVS_TAUTO_COUNT>
1

>  <PUBCHEM_CONFORMER_ID>
00001E1900000001

>  <PUBCHEM_MMFF94_ENERGY>
15.1206

>  <PUBCHEM_FEATURE_SELFOVERLAP>
10.148

>  <PUBCHEM_SHAPE_FINGERPRINT>
10857977 72 18342179989875067905
12251169 10 18409730672929169676
13024252 1 14562529570488215181
14325111 11 18412829053725412086
15219456 202 17916876715987521758
20645464 45 17989211438347407599
20871998 184 18200882880261393175
21119208 17 10664102255252229304
22485316 2 15213017163513718392
23402539 116 18271798030599934261
23403322 49 12613020666255288416
23552423 10 17683259314521451749
369184 2 18413389826130394783
75552 356 18408888455385355031

>  <PUBCHEM_SHAPE_MULTIPOLES>
205.8
6.58
1.2
0.85
7.07
0.01
-0.02
0.07
1.98
-1.04
0.02
0.3
0
0.03

>  <PUBCHEM_SHAPE_SELFOVERLAP>
409.121

>  <PUBCHEM_SHAPE_VOLUME>
118.8

>  <PUBCHEM_COORDINATE_TYPE>
2
5
10

>  <Energy>
17.5615

$$$$
