3032340
 OpenBabel09212612403D

 43 44  0  0  0  0  0  0  0  0999 V2000
    5.6756    0.1656    0.3819 O   0  0  0  0  0  0  0  0  0  0  0  0
   -6.3197   -0.2099   -0.0463 O   0  0  0  0  0  0  0  0  0  0  0  0
    0.0805   -0.5613    0.1820 C   0  0  0  0  0  0  0  0  0  0  0  0
   -0.7477    0.5127    0.2013 C   0  0  0  0  0  0  0  0  0  0  0  0
   -0.3506   -2.0162    0.1307 C   0  0  0  0  0  0  0  0  0  0  0  0
   -0.3115    1.9634    0.3159 C   0  0  0  0  0  0  0  0  0  0  0  0
    1.5425   -0.3782    0.2209 C   0  0  0  0  0  0  0  0  0  0  0  0
   -2.2106    0.3316    0.1466 C   0  0  0  0  0  0  0  0  0  0  0  0
   -0.4883   -2.5484   -1.2907 C   0  0  0  0  0  0  0  0  0  0  0  0
   -0.0810    2.6298   -1.0346 C   0  0  0  0  0  0  0  0  0  0  0  0
    2.2336   -0.3391    1.4358 C   0  0  0  0  0  0  0  0  0  0  0  0
    2.2485   -0.2348   -0.9757 C   0  0  0  0  0  0  0  0  0  0  0  0
   -2.9458    0.1827    1.3297 C   0  0  0  0  0  0  0  0  0  0  0  0
   -2.8735    0.2965   -1.0867 C   0  0  0  0  0  0  0  0  0  0  0  0
    3.6192   -0.1544    1.4453 C   0  0  0  0  0  0  0  0  0  0  0  0
    3.6324   -0.0494   -0.9631 C   0  0  0  0  0  0  0  0  0  0  0  0
    4.3250   -0.0097    0.2483 C   0  0  0  0  0  0  0  0  0  0  0  0
   -4.3290    0.0003    1.2816 C   0  0  0  0  0  0  0  0  0  0  0  0
   -4.2553    0.1141   -1.1351 C   0  0  0  0  0  0  0  0  0  0  0  0
   -4.9708   -0.0331    0.0471 C   0  0  0  0  0  0  0  0  0  0  0  0
    6.4100    0.3122   -0.8287 C   0  0  0  0  0  0  0  0  0  0  0  0
   -6.8336   -0.3124    0.7305 H   0  0  0  0  0  0  0  0  0  0  0  0
   -1.2965   -2.1088    0.6223 H   0  0  0  0  0  0  0  0  0  0  0  0
    0.4102   -2.5920    0.6150 H   0  0  0  0  0  0  0  0  0  0  0  0
    0.6008    2.0011    0.8737 H   0  0  0  0  0  0  0  0  0  0  0  0
   -1.1023    2.4956    0.8021 H   0  0  0  0  0  0  0  0  0  0  0  0
   -1.2435   -1.9940   -1.8075 H   0  0  0  0  0  0  0  0  0  0  0  0
   -0.7631   -3.5820   -1.2594 H   0  0  0  0  0  0  0  0  0  0  0  0
    0.4451   -2.4428   -1.8030 H   0  0  0  0  0  0  0  0  0  0  0  0
    0.7063    2.1231   -1.5526 H   0  0  0  0  0  0  0  0  0  0  0  0
    0.1914    3.6537   -0.8853 H   0  0  0  0  0  0  0  0  0  0  0  0
   -0.9789    2.5805   -1.6145 H   0  0  0  0  0  0  0  0  0  0  0  0
    1.7210   -0.4466    2.3250 H   0  0  0  0  0  0  0  0  0  0  0  0
    1.7438   -0.2661   -1.8753 H   0  0  0  0  0  0  0  0  0  0  0  0
   -2.4626    0.2079    2.2412 H   0  0  0  0  0  0  0  0  0  0  0  0
   -2.3380    0.4059   -1.9620 H   0  0  0  0  0  0  0  0  0  0  0  0
    4.1251   -0.1246    2.3443 H   0  0  0  0  0  0  0  0  0  0  0  0
    4.1449    0.0586   -1.8523 H   0  0  0  0  0  0  0  0  0  0  0  0
   -4.8706   -0.1088    2.1533 H   0  0  0  0  0  0  0  0  0  0  0  0
   -4.7437    0.0885   -2.0439 H   0  0  0  0  0  0  0  0  0  0  0  0
    7.4478    0.4420   -0.6027 H   0  0  0  0  0  0  0  0  0  0  0  0
    6.0514    1.1677   -1.3620 H   0  0  0  0  0  0  0  0  0  0  0  0
    6.2829   -0.5628   -1.4312 H   0  0  0  0  0  0  0  0  0  0  0  0
  1 17  1  0  0  0  0
  1 21  1  0  0  0  0
  2 20  1  0  0  0  0
  2 22  1  0  0  0  0
  3  4  2  0  0  0  0
  3  5  1  0  0  0  0
  3  7  1  0  0  0  0
  4  6  1  0  0  0  0
  4  8  1  0  0  0  0
  5  9  1  0  0  0  0
  5 23  1  0  0  0  0
  5 24  1  0  0  0  0
  6 10  1  0  0  0  0
  6 25  1  0  0  0  0
  6 26  1  0  0  0  0
  7 11  2  0  0  0  0
  7 12  1  0  0  0  0
  8 13  2  0  0  0  0
  8 14  1  0  0  0  0
  9 27  1  0  0  0  0
  9 28  1  0  0  0  0
  9 29  1  0  0  0  0
 10 30  1  0  0  0  0
 10 31  1  0  0  0  0
 10 32  1  0  0  0  0
 11 15  1  0  0  0  0
 11 33  1  0  0  0  0
 12 16  2  0  0  0  0
 12 34  1  0  0  0  0
 13 18  1  0  0  0  0
 13 35  1  0  0  0  0
 14 19  2  0  0  0  0
 14 36  1  0  0  0  0
 15 17  2  0  0  0  0
 15 37  1  0  0  0  0
 16 17  1  0  0  0  0
 16 38  1  0  0  0  0
 18 20  2  0  0  0  0
 18 39  1  0  0  0  0
 19 20  1  0  0  0  0
 19 40  1  0  0  0  0
 21 41  1  0  0  0  0
 21 42  1  0  0  0  0
 21 43  1  0  0  0  0
M  END
>  <PUBCHEM_COMPOUND_CID>
3032340

>  <PUBCHEM_CONFORMER_RMSD>
0.8

>  <PUBCHEM_CONFORMER_DIVERSEORDER>
1
2

>  <PUBCHEM_MMFF94_PARTIAL_CHARGES>
28
1 -0.36
11 -0.15
12 -0.15
13 -0.15
14 -0.15
15 -0.15
16 -0.15
17 0.08
18 -0.15
19 -0.15
2 -0.53
20 0.08
21 0.28
3 -0.17
32 0.15
33 0.15
34 0.15
35 0.15
36 0.15
37 0.15
38 0.15
39 0.15
4 -0.17
40 0.45
5 0.14
6 0.14
7 0.03
8 0.03

>  <PUBCHEM_EFFECTIVE_ROTOR_COUNT>
5

>  <PUBCHEM_PHARMACOPHORE_FEATURES>
6
1 1 acceptor
1 10 hydrophobe
1 2 donor
1 9 hydrophobe
6 7 11 12 15 16 17 rings
6 8 13 14 18 19 20 rings

>  <PUBCHEM_HEAVY_ATOM_COUNT>
21

>  <PUBCHEM_ATOM_DEF_STEREO_COUNT>
0

>  <PUBCHEM_ATOM_UDEF_STEREO_COUNT>
0

>  <PUBCHEM_BOND_DEF_STEREO_COUNT>
1

>  <PUBCHEM_BOND_UDEF_STEREO_COUNT>
0

>  <PUBCHEM_ISOTOPIC_ATOM_COUNT>
0

>  <PUBCHEM_COMPONENT_COUNT>
1

>  <PUBCHEM_CACTVS_TAUTO_COUNT>
2

>  <PUBCHEM_CONFORMER_ID>
002E451400000001

>  <PUBCHEM_MMFF94_ENERGY>
72.5343

>  <PUBCHEM_FEATURE_SELFOVERLAP>
30.446

>  <PUBCHEM_SHAPE_FINGERPRINT>
10906281 52 18188220788782093545
12011746 2 18341894095155463793
12107183 9 15433939659354911456
12236239 1 17676204663302410762
12633257 1 17987780995769501530
12969540 114 18334842944245293671
13140716 1 18267583692028682208
13533116 47 17749100051110082698
13583140 156 17385445452934474697
14787075 74 17458628951126805146
14955137 171 18341621455248273361
15209289 33 17703789219414947347
1601671 61 18337953394395931821
1813 80 18271535229545557597
18186145 218 17417801829550757010
18222031 100 18411414020820393505
19489759 90 16081087073752283485
200 152 17240199924050667488
21033648 29 18337933650104504104
23402539 116 18342735221798599926
23559900 14 16844999217174029954
23569943 247 17486792791407966958
26918003 58 16515687744897190688
34797466 226 17168436994850035470
34934 24 18189056563458077100
3545911 37 16081089272680379137
4214541 1 15410897344806117099
465052 167 18114471136442910219
57003041 33 18408884010073098317
59755656 520 18131912663223980431
67856867 119 15141259778730815438
7495541 125 17531537580745904305
77779 3 15554445201930040707

>  <PUBCHEM_SHAPE_MULTIPOLES>
420.43
11.99
1.7
1.39
3.2
0.05
0.12
0.5
-0.24
-0.28
-0.65
0.08
-0.08
-0.18

>  <PUBCHEM_SHAPE_SELFOVERLAP>
889.924

>  <PUBCHEM_SHAPE_VOLUME>
237.2

>  <PUBCHEM_COORDINATE_TYPE>
2
5
10

>  <Energy>
43.2963

$$$$
