5100
 OpenBabel09212612403D

 36 38  0  0  0  0  0  0  0  0999 V2000
    4.9673   -2.6673    0.0283 O   0  0  0  0  0  0  0  0  0  0  0  0
   -4.9580   -2.6837    0.0276 O   0  0  0  0  0  0  0  0  0  0  0  0
   -0.0085    5.4613   -0.0057 O   0  0  0  0  0  0  0  0  0  0  0  0
    0.0002   -0.0073    0.0019 C   0  0  0  0  0  0  0  0  0  0  0  0
    1.2840   -0.7556   -0.0014 C   0  0  0  0  0  0  0  0  0  0  0  0
   -1.2810   -0.7598   -0.0015 C   0  0  0  0  0  0  0  0  0  0  0  0
   -0.0021    1.3594    0.0032 C   0  0  0  0  0  0  0  0  0  0  0  0
    1.9029   -1.0881   -1.2153 C   0  0  0  0  0  0  0  0  0  0  0  0
   -1.9056   -1.0972    1.2070 C   0  0  0  0  0  0  0  0  0  0  0  0
    1.9099   -1.0901    1.2072 C   0  0  0  0  0  0  0  0  0  0  0  0
   -1.8992   -1.0935   -1.2156 C   0  0  0  0  0  0  0  0  0  0  0  0
    1.2506    2.1321    0.0037 C   0  0  0  0  0  0  0  0  0  0  0  0
   -1.2567    2.1284    0.0046 C   0  0  0  0  0  0  0  0  0  0  0  0
    3.1411   -1.7340   -1.2214 C   0  0  0  0  0  0  0  0  0  0  0  0
   -3.1410   -1.7459    1.1991 C   0  0  0  0  0  0  0  0  0  0  0  0
    3.1475   -1.7347    1.1995 C   0  0  0  0  0  0  0  0  0  0  0  0
   -3.1353   -1.7434   -1.2218 C   0  0  0  0  0  0  0  0  0  0  0  0
    3.7533   -2.0485   -0.0119 C   0  0  0  0  0  0  0  0  0  0  0  0
   -3.7461   -2.0607   -0.0124 C   0  0  0  0  0  0  0  0  0  0  0  0
    1.2586    3.4716    0.0020 C   0  0  0  0  0  0  0  0  0  0  0  0
   -1.2693    3.4672    0.0032 C   0  0  0  0  0  0  0  0  0  0  0  0
   -0.0065    4.2365   -0.0001 C   0  0  0  0  0  0  0  0  0  0  0  0
    5.4045   -2.8935   -0.7690 H   0  0  0  0  0  0  0  0  0  0  0  0
   -5.3524   -2.8887    0.8525 H   0  0  0  0  0  0  0  0  0  0  0  0
    1.4411   -0.8544   -2.1082 H   0  0  0  0  0  0  0  0  0  0  0  0
   -1.4510   -0.8656    2.1041 H   0  0  0  0  0  0  0  0  0  0  0  0
    1.4547   -0.8593    2.1042 H   0  0  0  0  0  0  0  0  0  0  0  0
   -1.4384   -0.8576   -2.1084 H   0  0  0  0  0  0  0  0  0  0  0  0
    2.1503    1.6265    0.0055 H   0  0  0  0  0  0  0  0  0  0  0  0
   -2.1548    1.6200    0.0068 H   0  0  0  0  0  0  0  0  0  0  0  0
    3.5979   -1.9758   -2.1146 H   0  0  0  0  0  0  0  0  0  0  0  0
   -3.6036   -1.9908    2.0886 H   0  0  0  0  0  0  0  0  0  0  0  0
    3.6110   -1.9774    2.0891 H   0  0  0  0  0  0  0  0  0  0  0  0
   -3.5915   -1.9861   -2.1151 H   0  0  0  0  0  0  0  0  0  0  0  0
    2.1590    3.9759    0.0021 H   0  0  0  0  0  0  0  0  0  0  0  0
   -2.1714    3.9684    0.0044 H   0  0  0  0  0  0  0  0  0  0  0  0
  1 18  1  0  0  0  0
  1 23  1  0  0  0  0
  2 19  1  0  0  0  0
  2 24  1  0  0  0  0
  3 22  2  0  0  0  0
  4  5  1  0  0  0  0
  4  6  1  0  0  0  0
  4  7  2  0  0  0  0
  5  8  2  0  0  0  0
  5 10  1  0  0  0  0
  6  9  2  0  0  0  0
  6 11  1  0  0  0  0
  7 12  1  0  0  0  0
  7 13  1  0  0  0  0
  8 14  1  0  0  0  0
  8 25  1  0  0  0  0
  9 15  1  0  0  0  0
  9 26  1  0  0  0  0
 10 16  2  0  0  0  0
 10 27  1  0  0  0  0
 11 17  2  0  0  0  0
 11 28  1  0  0  0  0
 12 20  2  0  0  0  0
 12 29  1  0  0  0  0
 13 21  2  0  0  0  0
 13 30  1  0  0  0  0
 14 18  2  0  0  0  0
 14 31  1  0  0  0  0
 15 19  2  0  0  0  0
 15 32  1  0  0  0  0
 16 18  1  0  0  0  0
 16 33  1  0  0  0  0
 17 19  1  0  0  0  0
 17 34  1  0  0  0  0
 20 22  1  0  0  0  0
 20 35  1  0  0  0  0
 21 22  1  0  0  0  0
 21 36  1  0  0  0  0
M  END
>  <PUBCHEM_COMPOUND_CID>
5100

>  <PUBCHEM_CONFORMER_RMSD>
0.6

>  <PUBCHEM_CONFORMER_DIVERSEORDER>
1

>  <PUBCHEM_MMFF94_PARTIAL_CHARGES>
35
1 -0.53
10 -0.15
11 -0.15
12 -0.15
13 -0.15
14 -0.15
15 -0.15
16 -0.15
17 -0.15
18 0.08
19 0.08
2 -0.53
20 -0.14
21 -0.14
22 0.54
23 0.15
24 0.15
25 0.15
26 0.15
27 0.15
28 0.15
29 0.15
3 -0.57
30 0.15
31 0.15
32 0.15
33 0.15
34 0.15
35 0.45
36 0.45
4 -0.06
5 0.03
6 0.03
8 -0.15
9 -0.15

>  <PUBCHEM_EFFECTIVE_ROTOR_COUNT>
2

>  <PUBCHEM_PHARMACOPHORE_FEATURES>
6
1 1 donor
1 2 donor
1 3 acceptor
6 5 8 10 14 16 18 rings
6 6 9 11 15 17 19 rings
6 7 12 13 20 21 22 rings

>  <PUBCHEM_HEAVY_ATOM_COUNT>
22

>  <PUBCHEM_ATOM_DEF_STEREO_COUNT>
0

>  <PUBCHEM_ATOM_UDEF_STEREO_COUNT>
0

>  <PUBCHEM_BOND_DEF_STEREO_COUNT>
0

>  <PUBCHEM_BOND_UDEF_STEREO_COUNT>
0

>  <PUBCHEM_ISOTOPIC_ATOM_COUNT>
0

>  <PUBCHEM_COMPONENT_COUNT>
1

>  <PUBCHEM_CACTVS_TAUTO_COUNT>
3

>  <PUBCHEM_CONFORMER_ID>
000013EC00000001

>  <PUBCHEM_MMFF94_ENERGY>
80.8856

>  <PUBCHEM_FEATURE_SELFOVERLAP>
30.447

>  <PUBCHEM_SHAPE_FINGERPRINT>
10411042 1 18410856559640432679
1100329 8 18337108939443434665
11101153 10 18408329887448478452
11833330 49 18337950069721830177
12363563 72 18409729564532883775
12532896 13 17403735549869021804
12553582 1 18338530689060398630
12707595 3 18334853961016483187
12730499 353 17686623850573691363
12788726 201 18118423759863084194
13134695 92 18337390551368196455
13140716 1 18411419466649105217
13149001 5 18046596007085265541
13681431 1 18340198721292611753
138480 1 14880032922778348516
13911987 19 17755325674893573356
13955234 65 17977953706711442171
14178342 30 18047179753539540906
14844126 61 18194110824947972922
15042514 8 18194689155073045195
15906896 17 17903645085605489979
16087824 20 18122344576460281101
17539 30 18196644103705573782
1813 80 18272381879252905198
20101258 96 18339089198470550226
20832881 197 18260268555977241555
20905425 154 18413395324137453036
21304303 282 17398354591407445772
21524375 3 17114375940900164152
2255824 54 17981330310771768853
23419403 2 17753855537294051868
23557571 272 18055912100751593206
23598288 3 17829639195823648282
3091708 16 9137491923861819345
4409770 3 17978231560640000477
474 4 17692818507283852929
59755656 520 17473256579398387230
6138700 20 18122915493382604636
633830 44 17479192198495381053
6442390 28 17405438697433314697
7364860 26 18122908895584324247
77188 2 18410574010937131197
81228 2 18196363728335520785
8272917 22 17979359986573214527
9841814 1 18261664995436008083

>  <PUBCHEM_SHAPE_MULTIPOLES>
435.14
6.56
5.65
1.16
0.05
10.13
0
-10.2
0
-0.05
0
0
-0.75
0

>  <PUBCHEM_SHAPE_SELFOVERLAP>
965.66

>  <PUBCHEM_SHAPE_VOLUME>
233.5

>  <PUBCHEM_COORDINATE_TYPE>
2
5
10

>  <Energy>
45.972

$$$$
