79302
 OpenBabel09212612403D

 34 34  0  0  0  0  0  0  0  0999 V2000
    4.1101   -0.0438   -0.1997 O   0  0  0  0  0  0  0  0  0  0  0  0
   -0.1084    0.0410    0.5160 C   0  0  1  0  0  0  0  0  0  0  0  0
   -1.6854    0.0329    0.3552 C   0  0  0  0  0  0  0  0  0  0  0  0
    0.5668   -1.2676    0.0402 C   0  0  0  0  0  0  0  0  0  0  0  0
    0.5754    1.2599   -0.1469 C   0  0  0  0  0  0  0  0  0  0  0  0
    2.0815   -1.2456    0.2274 C   0  0  0  0  0  0  0  0  0  0  0  0
    2.0910    1.2525    0.0394 C   0  0  0  0  0  0  0  0  0  0  0  0
    2.7118   -0.0444   -0.4649 C   0  0  1  0  0  0  0  0  0  0  0  0
   -2.1078   -0.1049   -1.1385 C   0  0  0  0  0  0  0  0  0  0  0  0
   -2.2749   -1.1367    1.1782 C   0  0  0  0  0  0  0  0  0  0  0  0
   -2.2677    1.3401    0.9434 C   0  0  0  0  0  0  0  0  0  0  0  0
   -3.6090   -0.1482   -1.4097 C   0  0  0  0  0  0  0  0  0  0  0  0
    4.5008   -0.8709   -0.5224 H   0  0  0  0  0  0  0  0  0  0  0  0
    0.0385    0.1202    1.5729 H   0  0  0  0  0  0  0  0  0  0  0  0
    0.3516   -1.4067   -0.9987 H   0  0  0  0  0  0  0  0  0  0  0  0
    0.1776   -2.0685    0.6334 H   0  0  0  0  0  0  0  0  0  0  0  0
    0.1804    2.1539    0.2887 H   0  0  0  0  0  0  0  0  0  0  0  0
    0.3765    1.2132   -1.1972 H   0  0  0  0  0  0  0  0  0  0  0  0
    2.4959   -2.1417   -0.1850 H   0  0  0  0  0  0  0  0  0  0  0  0
    2.2894   -1.1768    1.2748 H   0  0  0  0  0  0  0  0  0  0  0  0
    2.3135    1.3621    1.0803 H   0  0  0  0  0  0  0  0  0  0  0  0
    2.5018    2.0623   -0.5265 H   0  0  0  0  0  0  0  0  0  0  0  0
    2.5371   -0.1126   -1.5184 H   0  0  0  0  0  0  0  0  0  0  0  0
   -1.6808   -1.0101   -1.5169 H   0  0  0  0  0  0  0  0  0  0  0  0
   -1.7538    0.7823   -1.6206 H   0  0  0  0  0  0  0  0  0  0  0  0
   -1.8959   -2.0640    0.8023 H   0  0  0  0  0  0  0  0  0  0  0  0
   -3.3418   -1.1281    1.0965 H   0  0  0  0  0  0  0  0  0  0  0  0
   -1.9950   -1.0270    2.2051 H   0  0  0  0  0  0  0  0  0  0  0  0
   -1.8834    2.1780    0.4000 H   0  0  0  0  0  0  0  0  0  0  0  0
   -1.9878    1.4238    1.9727 H   0  0  0  0  0  0  0  0  0  0  0  0
   -3.3346    1.3227    0.8642 H   0  0  0  0  0  0  0  0  0  0  0  0
   -4.0293   -1.0188   -0.9511 H   0  0  0  0  0  0  0  0  0  0  0  0
   -3.7798   -0.1835   -2.4654 H   0  0  0  0  0  0  0  0  0  0  0  0
   -4.0704    0.7273   -1.0028 H   0  0  0  0  0  0  0  0  0  0  0  0
  1  8  1  0  0  0  0
  1 13  1  0  0  0  0
  2  3  1  0  0  0  0
  2  4  1  0  0  0  0
  2  5  1  0  0  0  0
  2 14  1  1  0  0  0
  3  9  1  0  0  0  0
  3 10  1  0  0  0  0
  3 11  1  0  0  0  0
  4  6  1  0  0  0  0
  4 15  1  0  0  0  0
  4 16  1  0  0  0  0
  5  7  1  0  0  0  0
  5 17  1  0  0  0  0
  5 18  1  0  0  0  0
  6  8  1  0  0  0  0
  6 19  1  0  0  0  0
  6 20  1  0  0  0  0
  7  8  1  0  0  0  0
  7 21  1  0  0  0  0
  7 22  1  0  0  0  0
  8 23  1  6  0  0  0
  9 12  1  0  0  0  0
  9 24  1  0  0  0  0
  9 25  1  0  0  0  0
 10 26  1  0  0  0  0
 10 27  1  0  0  0  0
 10 28  1  0  0  0  0
 11 29  1  0  0  0  0
 11 30  1  0  0  0  0
 11 31  1  0  0  0  0
 12 32  1  0  0  0  0
 12 33  1  0  0  0  0
 12 34  1  0  0  0  0
M  END
>  <PUBCHEM_COMPOUND_CID>
79302

>  <PUBCHEM_CONFORMER_RMSD>
0.6

>  <PUBCHEM_CONFORMER_DIVERSEORDER>
3
8
5
10
4
9
2
6
7
1

>  <PUBCHEM_MMFF94_PARTIAL_CHARGES>
3
1 -0.68
34 0.4
8 0.28

>  <PUBCHEM_EFFECTIVE_ROTOR_COUNT>
3.2

>  <PUBCHEM_PHARMACOPHORE_FEATURES>
5
1 1 acceptor
1 1 donor
1 12 hydrophobe
3 3 10 11 hydrophobe
6 2 4 5 6 7 8 rings

>  <PUBCHEM_HEAVY_ATOM_COUNT>
12

>  <PUBCHEM_ATOM_DEF_STEREO_COUNT>
0

>  <PUBCHEM_ATOM_UDEF_STEREO_COUNT>
0

>  <PUBCHEM_BOND_DEF_STEREO_COUNT>
0

>  <PUBCHEM_BOND_UDEF_STEREO_COUNT>
0

>  <PUBCHEM_ISOTOPIC_ATOM_COUNT>
0

>  <PUBCHEM_COMPONENT_COUNT>
1

>  <PUBCHEM_CACTVS_TAUTO_COUNT>
1

>  <PUBCHEM_CONFORMER_ID>
000135C600000003

>  <PUBCHEM_MMFF94_ENERGY>
29.8255

>  <PUBCHEM_FEATURE_SELFOVERLAP>
25.378

>  <PUBCHEM_SHAPE_FINGERPRINT>
11769659 78 16845575266814653398
12138202 97 17240753004390970423
124424 183 17458617900608390770
12897270 3 18408038532860122023
12932764 1 17418100909751303800
13024252 1 13623533476308540785
14128692 85 17560508599218883367
14325111 11 18410022052221868760
14993402 34 18201715158976117038
15219456 202 18040997409581835301
15775835 57 17704078360723515625
15906896 17 17916882205520020673
16945 1 18342461473410097242
17844478 74 17386305232604960793
18186145 218 17967828141053942006
18534176 82 17386004000863025915
200 152 18272083933324118367
20201158 50 18260264135822410094
20653085 51 17385720326937023429
21293036 1 18335695057166943807
23402655 69 18338507531187225469
23557571 272 16805615784081720431
25 1 18041549227338637285
2748010 2 18120099639217480888
3248919 1 18408324375939911586
369184 2 17022906748125243683
5084963 1 17604721099742936953
528886 8 18409453552859380424
63268167 104 18335980891661936848
6333449 129 17313100869646181455
8030462 33 18341894082249456281

>  <PUBCHEM_SHAPE_MULTIPOLES>
241.09
5.41
1.42
1.15
1.69
0.1
-0.13
-0.18
-1.37
0.13
0.29
-1.16
-0.07
-0.13

>  <PUBCHEM_SHAPE_SELFOVERLAP>
468.991

>  <PUBCHEM_SHAPE_VOLUME>
146.1

>  <PUBCHEM_COORDINATE_TYPE>
2
5
10

>  <Energy>
26.4789

$$$$
