8103
 OpenBabel09212612393D

 21 20  0  0  0  0  0  0  0  0999 V2000
    3.6889    0.3596    0.0010 O   0  0  0  0  0  0  0  0  0  0  0  0
    0.0174   -0.4900    0.0037 C   0  0  0  0  0  0  0  0  0  0  0  0
   -1.2475    0.3695    0.0126 C   0  0  0  0  0  0  0  0  0  0  0  0
    1.2781    0.3721    0.0188 C   0  0  0  0  0  0  0  0  0  0  0  0
   -2.5103   -0.4927    0.0195 C   0  0  0  0  0  0  0  0  0  0  0  0
    2.5410   -0.4783   -0.0247 C   0  0  0  0  0  0  0  0  0  0  0  0
   -3.7674    0.3621   -0.0318 C   0  0  0  0  0  0  0  0  0  0  0  0
    4.4893   -0.1876   -0.0269 H   0  0  0  0  0  0  0  0  0  0  0  0
    0.0205   -1.0956   -0.8785 H   0  0  0  0  0  0  0  0  0  0  0  0
    0.0161   -1.0996    0.8831 H   0  0  0  0  0  0  0  0  0  0  0  0
   -1.2536    0.9883   -0.8603 H   0  0  0  0  0  0  0  0  0  0  0  0
   -1.2426    0.9652    0.9014 H   0  0  0  0  0  0  0  0  0  0  0  0
    1.2860    0.9596    0.9131 H   0  0  0  0  0  0  0  0  0  0  0  0
    1.2660    0.9971   -0.8496 H   0  0  0  0  0  0  0  0  0  0  0  0
   -2.5255   -1.0805    0.9134 H   0  0  0  0  0  0  0  0  0  0  0  0
   -2.4943   -1.1196   -0.8475 H   0  0  0  0  0  0  0  0  0  0  0  0
    2.5588   -1.1309    0.8231 H   0  0  0  0  0  0  0  0  0  0  0  0
    2.5462   -1.0558   -0.9255 H   0  0  0  0  0  0  0  0  0  0  0  0
   -3.8020    0.9975    0.8284 H   0  0  0  0  0  0  0  0  0  0  0  0
   -4.6295   -0.2716   -0.0421 H   0  0  0  0  0  0  0  0  0  0  0  0
   -3.7550    0.9619   -0.9179 H   0  0  0  0  0  0  0  0  0  0  0  0
  1  6  1  0  0  0  0
  1  8  1  0  0  0  0
  2  3  1  0  0  0  0
  2  4  1  0  0  0  0
  2  9  1  0  0  0  0
  2 10  1  0  0  0  0
  3  5  1  0  0  0  0
  3 11  1  0  0  0  0
  3 12  1  0  0  0  0
  4  6  1  0  0  0  0
  4 13  1  0  0  0  0
  4 14  1  0  0  0  0
  5  7  1  0  0  0  0
  5 15  1  0  0  0  0
  5 16  1  0  0  0  0
  6 17  1  0  0  0  0
  6 18  1  0  0  0  0
  7 19  1  0  0  0  0
  7 20  1  0  0  0  0
  7 21  1  0  0  0  0
M  END
>  <PUBCHEM_COMPOUND_CID>
8103

>  <PUBCHEM_CONFORMER_RMSD>
0.6

>  <PUBCHEM_CONFORMER_DIVERSEORDER>
1
23
22
28
7
31
14
29
15
30
3
17
8
10
13
21
12
20
27
2
24
25
19
26
9
16
18
5
4
11
6

>  <PUBCHEM_MMFF94_PARTIAL_CHARGES>
3
1 -0.68
21 0.4
6 0.28

>  <PUBCHEM_EFFECTIVE_ROTOR_COUNT>
4

>  <PUBCHEM_PHARMACOPHORE_FEATURES>
4
1 1 acceptor
1 1 donor
1 7 hydrophobe
4 2 3 4 5 hydrophobe

>  <PUBCHEM_HEAVY_ATOM_COUNT>
7

>  <PUBCHEM_ATOM_DEF_STEREO_COUNT>
0

>  <PUBCHEM_ATOM_UDEF_STEREO_COUNT>
0

>  <PUBCHEM_BOND_DEF_STEREO_COUNT>
0

>  <PUBCHEM_BOND_UDEF_STEREO_COUNT>
0

>  <PUBCHEM_ISOTOPIC_ATOM_COUNT>
0

>  <PUBCHEM_COMPONENT_COUNT>
1

>  <PUBCHEM_CACTVS_TAUTO_COUNT>
1

>  <PUBCHEM_CONFORMER_ID>
00001FA700000001

>  <PUBCHEM_MMFF94_ENERGY>
-1.9507

>  <PUBCHEM_FEATURE_SELFOVERLAP>
20.297

>  <PUBCHEM_SHAPE_FINGERPRINT>
11062470 55 18410575088973896449
12932764 1 15574703742379272995
14325111 11 18410575084731819587
14390081 3 18412260627752102313
20719005 15 18409730664560761651
5460574 1 9079116656893887978

>  <PUBCHEM_SHAPE_MULTIPOLES>
138.19
6.57
0.78
0.6
0.05
0.03
0
-0.6
0.07
-0.04
0
-0.05
0.01
0.02

>  <PUBCHEM_SHAPE_SELFOVERLAP>
235.815

>  <PUBCHEM_SHAPE_VOLUME>
93.4

>  <PUBCHEM_COORDINATE_TYPE>
2
5
10

>  <Energy>
-2.22117

$$$$
