676034
 OpenBabel09212612403D

 32 34  0  0  0  0  0  0  0  0999 V2000
   -0.1184   -0.6414    0.5539 O   0  0  0  0  0  0  0  0  0  0  0  0
    2.3576   -0.6056   -1.9265 O   0  0  0  0  0  0  0  0  0  0  0  0
   -1.7745    2.7682   -0.9316 O   0  0  0  0  0  0  0  0  0  0  0  0
   -5.6065   -0.4821    0.0994 O   0  0  0  0  0  0  0  0  0  0  0  0
    0.6499    0.4346    0.1520 C   0  0  0  0  0  0  0  0  0  0  0  0
   -2.1106    0.5863   -0.0924 C   0  0  0  0  0  0  0  0  0  0  0  0
   -1.4791   -0.5496    0.4110 C   0  0  0  0  0  0  0  0  0  0  0  0
    2.0910    0.2242    0.3241 C   0  0  0  0  0  0  0  0  0  0  0  0
    0.1727    1.5811   -0.3479 C   0  0  0  0  0  0  0  0  0  0  0  0
   -1.2836    1.7343   -0.4966 C   0  0  0  0  0  0  0  0  0  0  0  0
    2.8866   -0.3274   -0.6915 C   0  0  0  0  0  0  0  0  0  0  0  0
   -3.5029    0.6337   -0.2081 C   0  0  0  0  0  0  0  0  0  0  0  0
   -2.2338   -1.6552    0.7996 C   0  0  0  0  0  0  0  0  0  0  0  0
    2.6906    0.5773    1.5416 C   0  0  0  0  0  0  0  0  0  0  0  0
   -4.2463   -0.4738    0.1863 C   0  0  0  0  0  0  0  0  0  0  0  0
   -3.6246   -1.6154    0.6864 C   0  0  0  0  0  0  0  0  0  0  0  0
    4.2603   -0.4962   -0.5037 C   0  0  0  0  0  0  0  0  0  0  0  0
    4.0616    0.3941    1.7347 C   0  0  0  0  0  0  0  0  0  0  0  0
    4.8453   -0.1413    0.7130 C   0  0  0  0  0  0  0  0  0  0  0  0
    1.9205   -1.9626   -2.0028 C   0  0  0  0  0  0  0  0  0  0  0  0
   -6.0594    0.2682   -0.2322 H   0  0  0  0  0  0  0  0  0  0  0  0
    0.8130    2.3421   -0.6236 H   0  0  0  0  0  0  0  0  0  0  0  0
   -3.9708    1.4753   -0.5794 H   0  0  0  0  0  0  0  0  0  0  0  0
   -1.7671   -2.4983    1.1689 H   0  0  0  0  0  0  0  0  0  0  0  0
    2.1149    0.9752    2.3001 H   0  0  0  0  0  0  0  0  0  0  0  0
   -4.1905   -2.4296    0.9724 H   0  0  0  0  0  0  0  0  0  0  0  0
    4.8420   -0.8829   -1.2634 H   0  0  0  0  0  0  0  0  0  0  0  0
    4.4950    0.6551    2.6341 H   0  0  0  0  0  0  0  0  0  0  0  0
    5.8585   -0.2751    0.8565 H   0  0  0  0  0  0  0  0  0  0  0  0
    1.5134   -2.1521   -2.9740 H   0  0  0  0  0  0  0  0  0  0  0  0
    1.1697   -2.1377   -1.2609 H   0  0  0  0  0  0  0  0  0  0  0  0
    2.7510   -2.6150   -1.8307 H   0  0  0  0  0  0  0  0  0  0  0  0
  1  5  1  0  0  0  0
  1  7  1  0  0  0  0
  2 11  1  0  0  0  0
  2 20  1  0  0  0  0
  3 10  2  0  0  0  0
  4 15  1  0  0  0  0
  4 21  1  0  0  0  0
  5  8  1  0  0  0  0
  5  9  2  0  0  0  0
  6  7  2  0  0  0  0
  6 10  1  0  0  0  0
  6 12  1  0  0  0  0
  7 13  1  0  0  0  0
  8 11  1  0  0  0  0
  8 14  2  0  0  0  0
  9 10  1  0  0  0  0
  9 22  1  0  0  0  0
 11 17  2  0  0  0  0
 12 15  2  0  0  0  0
 12 23  1  0  0  0  0
 13 16  2  0  0  0  0
 13 24  1  0  0  0  0
 14 18  1  0  0  0  0
 14 25  1  0  0  0  0
 15 16  1  0  0  0  0
 16 26  1  0  0  0  0
 17 19  1  0  0  0  0
 17 27  1  0  0  0  0
 18 19  2  0  0  0  0
 18 28  1  0  0  0  0
 19 29  1  0  0  0  0
 20 30  1  0  0  0  0
 20 31  1  0  0  0  0
 20 32  1  0  0  0  0
M  END
>  <PUBCHEM_COMPOUND_CID>
676034

>  <PUBCHEM_CONFORMER_RMSD>
0.6

>  <PUBCHEM_CONFORMER_DIVERSEORDER>
1
5
6
2
7
3
4
8

>  <PUBCHEM_MMFF94_PARTIAL_CHARGES>
29
1 -0.16
10 0.47
11 0.08
12 -0.15
13 -0.15
14 -0.15
15 0.08
16 -0.15
17 -0.15
18 -0.15
19 -0.15
2 -0.36
20 0.28
21 0.15
22 0.15
23 0.15
24 0.15
25 0.15
26 0.15
27 0.15
28 0.15
3 -0.57
32 0.45
4 -0.53
5 0.05
6 0.09
7 0.08
8 0.03
9 -0.14

>  <PUBCHEM_EFFECTIVE_ROTOR_COUNT>
2

>  <PUBCHEM_PHARMACOPHORE_FEATURES>
7
1 1 acceptor
1 2 acceptor
1 3 acceptor
1 4 donor
6 1 5 6 7 9 10 rings
6 6 7 12 13 15 16 rings
6 8 11 14 17 18 19 rings

>  <PUBCHEM_HEAVY_ATOM_COUNT>
20

>  <PUBCHEM_ATOM_DEF_STEREO_COUNT>
0

>  <PUBCHEM_ATOM_UDEF_STEREO_COUNT>
0

>  <PUBCHEM_BOND_DEF_STEREO_COUNT>
0

>  <PUBCHEM_BOND_UDEF_STEREO_COUNT>
0

>  <PUBCHEM_ISOTOPIC_ATOM_COUNT>
0

>  <PUBCHEM_COMPONENT_COUNT>
1

>  <PUBCHEM_CACTVS_TAUTO_COUNT>
3

>  <PUBCHEM_CONFORMER_ID>
000A50C200000001

>  <PUBCHEM_MMFF94_ENERGY>
71.3632

>  <PUBCHEM_FEATURE_SELFOVERLAP>
35.55

>  <PUBCHEM_SHAPE_FINGERPRINT>
10366900 7 17632305596179521242
11370993 70 17275105058714610807
11543360 7 14418419952974412371
11582403 64 16899827300902049516
12236239 1 16877940521296926856
12363563 72 18188214324407699563
12403259 415 18060131029904445416
12553582 1 18113904879121740049
12788726 201 18114476594924700917
12892183 10 17060070245866346755
13140716 1 18188775088497054513
13583140 156 18046872010668987328
13862211 1 18187640345495337315
14115302 16 16805608104648644187
14252887 29 18202008724069578730
14289901 80 16988841679026462011
14386348 63 18342744013454437703
15342168 16 16915646198123816192
15375358 24 18343864420092794919
15848700 24 18409445925277017901
16752209 62 17967526844571246593
16945 1 18259987046234207465
17349148 13 17312821563158489586
17804303 29 18334573577203623865
19049666 15 17986113998360083936
19141452 34 18201720699853518535
19784866 240 16226320431083883178
19862831 5 16950287320767394946
200 152 16917348125879544171
20279233 1 18273219707007502379
204376 136 17203320178520911602
20600515 1 18188203320527524305
20645477 70 17060341773413969942
21267235 1 18113904879295988859
21285901 2 18411426072878304791
22079108 93 16128081364775715538
22182313 1 18269837527941709093
22224240 67 17489296534287175010
22854114 59 17561362902652982474
2297311 6 18335425655607052600
23402539 116 18336817663350873967
23557571 272 18410579439876234708
23559900 14 18337677391281208318
26918003 58 17561365101402210938
3004659 81 17458062685469284154
33824 294 17632580439969735686
4340502 62 16702304593963631735
474 4 15266192904782397562
621550 34 18060134336559686764
7471813 234 16443061699495827852
77492 1 16805325457694494104
81228 2 18263943063211672489
8272917 22 16200163070575173606
9709674 26 18340773632751239982

>  <PUBCHEM_SHAPE_MULTIPOLES>
388.11
9.51
1.84
1.44
1.68
0.34
0.22
-1.95
-2.16
0.99
0.71
-1.44
-0.33
1.72

>  <PUBCHEM_SHAPE_SELFOVERLAP>
859.529

>  <PUBCHEM_SHAPE_VOLUME>
207.4

>  <PUBCHEM_COORDINATE_TYPE>
2
5
10

>  <Energy>
50.2014

$$$$
