87250
 OpenBabel09212612403D

 26 27  0  0  0  0  0  0  0  0999 V2000
   -0.7440   -0.4788    0.3592 O   0  0  0  0  0  0  0  0  0  0  0  0
    5.4780   -0.4496    0.3145 O   0  0  0  0  0  0  0  0  0  0  0  0
   -0.4600    1.4008   -1.0093 O   0  0  0  0  0  0  0  0  0  0  0  0
    1.4170    0.2104   -0.1672 C   0  0  0  0  0  0  0  0  0  0  0  0
    2.3054    1.2943   -0.2341 C   0  0  0  0  0  0  0  0  0  0  0  0
    1.9065   -1.0844    0.0466 C   0  0  0  0  0  0  0  0  0  0  0  0
   -2.1211   -0.3007    0.2371 C   0  0  0  0  0  0  0  0  0  0  0  0
   -0.0294    0.4634   -0.3530 C   0  0  0  0  0  0  0  0  0  0  0  0
    3.6752    1.0830   -0.0684 C   0  0  0  0  0  0  0  0  0  0  0  0
    3.2762   -1.2911    0.2079 C   0  0  0  0  0  0  0  0  0  0  0  0
    4.1463   -0.2080    0.1512 C   0  0  0  0  0  0  0  0  0  0  0  0
   -2.8031   -0.9771   -0.7723 C   0  0  0  0  0  0  0  0  0  0  0  0
   -2.7929    0.5015    1.1577 C   0  0  0  0  0  0  0  0  0  0  0  0
   -4.1822   -0.8136   -0.8861 C   0  0  0  0  0  0  0  0  0  0  0  0
   -4.1725    0.6606    1.0375 C   0  0  0  0  0  0  0  0  0  0  0  0
   -4.8654    0.0062    0.0156 C   0  0  0  0  0  0  0  0  0  0  0  0
    6.0902    0.2589    0.2817 H   0  0  0  0  0  0  0  0  0  0  0  0
    1.9466    2.2466   -0.4055 H   0  0  0  0  0  0  0  0  0  0  0  0
    1.2549   -1.8838    0.0847 H   0  0  0  0  0  0  0  0  0  0  0  0
    4.3329    1.8773   -0.1083 H   0  0  0  0  0  0  0  0  0  0  0  0
    3.6421   -2.2426    0.3684 H   0  0  0  0  0  0  0  0  0  0  0  0
   -2.2936   -1.5910   -1.4269 H   0  0  0  0  0  0  0  0  0  0  0  0
   -2.2763    0.9712    1.9177 H   0  0  0  0  0  0  0  0  0  0  0  0
   -4.6990   -1.2981   -1.6366 H   0  0  0  0  0  0  0  0  0  0  0  0
   -4.6824    1.2618    1.7035 H   0  0  0  0  0  0  0  0  0  0  0  0
   -5.8862    0.1291   -0.0735 H   0  0  0  0  0  0  0  0  0  0  0  0
  1  7  1  0  0  0  0
  1  8  1  0  0  0  0
  2 11  1  0  0  0  0
  2 17  1  0  0  0  0
  3  8  2  0  0  0  0
  4  5  2  0  0  0  0
  4  6  1  0  0  0  0
  4  8  1  0  0  0  0
  5  9  1  0  0  0  0
  5 18  1  0  0  0  0
  6 10  2  0  0  0  0
  6 19  1  0  0  0  0
  7 12  2  0  0  0  0
  7 13  1  0  0  0  0
  9 11  2  0  0  0  0
  9 20  1  0  0  0  0
 10 11  1  0  0  0  0
 10 21  1  0  0  0  0
 12 14  1  0  0  0  0
 12 22  1  0  0  0  0
 13 15  2  0  0  0  0
 13 23  1  0  0  0  0
 14 16  2  0  0  0  0
 14 24  1  0  0  0  0
 15 16  1  0  0  0  0
 15 25  1  0  0  0  0
 16 26  1  0  0  0  0
M  END
>  <PUBCHEM_COMPOUND_CID>
87250

>  <PUBCHEM_CONFORMER_RMSD>
0.6

>  <PUBCHEM_CONFORMER_DIVERSEORDER>
1
20
9
6
14
16
3
13
18
12
2
4
11
19
5
17
10
7
8
15

>  <PUBCHEM_MMFF94_PARTIAL_CHARGES>
26
1 -0.23
10 -0.15
11 0.08
12 -0.15
13 -0.15
14 -0.15
15 -0.15
16 -0.15
17 0.15
18 0.15
19 0.15
2 -0.53
20 0.15
21 0.15
22 0.15
23 0.15
24 0.15
25 0.15
26 0.45
3 -0.57
4 0.09
5 -0.15
6 -0.15
7 0.08
8 0.63
9 -0.15

>  <PUBCHEM_EFFECTIVE_ROTOR_COUNT>
3

>  <PUBCHEM_PHARMACOPHORE_FEATURES>
4
1 2 donor
1 3 acceptor
6 4 5 6 9 10 11 rings
6 7 12 13 14 15 16 rings

>  <PUBCHEM_HEAVY_ATOM_COUNT>
16

>  <PUBCHEM_ATOM_DEF_STEREO_COUNT>
0

>  <PUBCHEM_ATOM_UDEF_STEREO_COUNT>
0

>  <PUBCHEM_BOND_DEF_STEREO_COUNT>
0

>  <PUBCHEM_BOND_UDEF_STEREO_COUNT>
0

>  <PUBCHEM_ISOTOPIC_ATOM_COUNT>
0

>  <PUBCHEM_COMPONENT_COUNT>
1

>  <PUBCHEM_CACTVS_TAUTO_COUNT>
3

>  <PUBCHEM_CONFORMER_ID>
000154D200000001

>  <PUBCHEM_MMFF94_ENERGY>
52.3145

>  <PUBCHEM_FEATURE_SELFOVERLAP>
20.297

>  <PUBCHEM_SHAPE_FINGERPRINT>
10680689 15 16370443380255319691
11401426 45 18408037416342730791
11471102 20 18333449867824865620
12107183 9 17481719554314350283
12236239 1 18201719561127710455
12251169 10 18343304760015568692
12670546 56 18131347514146732201
12815109 37 18260827094423710358
13167823 11 18201719569818092871
13675066 3 17967255312459663253
13760787 5 18113903783868292724
14004511 7 18413394232867073785
14251717 144 18410009944550974590
14386348 63 17095527292069178675
15375358 24 17530683229439352683
17834072 33 18130786797618301260
18186145 218 15502375659764598165
19026448 5 18131071549665575761
19050596 39 18272654557993623048
19489759 90 16989125340289206211
200 152 18341607122668060917
20279233 1 17240203239797088107
20645477 70 18187078430033168946
21267235 1 18411708685478217630
22094290 60 13767925728392829447
22646028 1 18272368689407747767
23175994 123 17167584895224704989
23402539 116 17418088811430057821
23557571 272 15985115084873004065
23559900 14 17846491577766597736
26918003 58 17967254199693738905
2871803 45 17749385928227888930
300161 21 18130782348053197227
42 15 18335424560253183625
4214541 1 18272652342217824609
474 4 18194960983654105104
4990 188 12468354626953380250
5104073 3 18339923821873954210
542803 24 17846501438974559745
573450 72 17917709089450410987
67856867 119 18059004124358337088
69090 78 18409165528036768907
9971528 1 18409728474254346620
9981440 41 17332233707182730393

>  <PUBCHEM_SHAPE_MULTIPOLES>
311.66
10.7
1.26
0.93
1.1
0.02
0.01
-0.88
1.08
0.39
-0.11
-0.68
0.1
-0.88

>  <PUBCHEM_SHAPE_SELFOVERLAP>
676.076

>  <PUBCHEM_SHAPE_VOLUME>
168.7

>  <PUBCHEM_COORDINATE_TYPE>
2
5
10

>  <Energy>
53.8259

$$$$
