5743
 OpenBabel09212612403D

 57 60  0  0  1  0  0  0  0  0999 V2000
    1.3242    0.0873    1.2743 F   0  0  0  0  0  0  0  0  0  0  0  0
   -2.9307   -0.3042    1.8579 O   0  0  0  0  0  0  0  0  0  0  0  0
    0.2712    2.1432   -1.5050 O   0  0  0  0  0  0  0  0  0  0  0  0
   -5.3486   -0.0417   -0.4570 O   0  0  0  0  0  0  0  0  0  0  0  0
   -5.6434    2.4699    0.7881 O   0  0  0  0  0  0  0  0  0  0  0  0
    6.1961    0.1002    1.6430 O   0  0  0  0  0  0  0  0  0  0  0  0
   -1.7999    0.1637   -0.2949 C   0  0  1  0  0  0  0  0  0  0  0  0
   -0.8906   -1.0615   -0.0405 C   0  0  2  0  0  0  0  0  0  0  0  0
    0.4979   -0.9339   -0.6803 C   0  0  1  0  0  0  0  0  0  0  0  0
    1.2161    0.3236   -0.0892 C   0  0  1  0  0  0  0  0  0  0  0  0
   -3.0948   -0.3252    0.4327 C   0  0  1  0  0  0  0  0  0  0  0  0
   -1.7647   -2.2557   -0.4215 C   0  0  0  0  0  0  0  0  0  0  0  0
   -1.0926    1.3906    0.3213 C   0  0  0  0  0  0  0  0  0  0  0  0
   -3.1989   -1.8265   -0.0218 C   0  0  1  0  0  0  0  0  0  0  0  0
    0.3419    1.6067   -0.1906 C   0  0  2  0  0  0  0  0  0  0  0  0
    2.6909    0.4736   -0.6295 C   0  0  1  0  0  0  0  0  0  0  0  0
    1.3216   -2.2108   -0.4316 C   0  0  0  0  0  0  0  0  0  0  0  0
   -2.0918    0.4039   -1.8030 C   0  0  0  0  0  0  0  0  0  0  0  0
    2.7503   -2.0855   -0.9476 C   0  0  0  0  0  0  0  0  0  0  0  0
    3.4123   -0.8583   -0.3730 C   0  0  0  0  0  0  0  0  0  0  0  0
   -4.3679    0.4763    0.0796 C   0  0  0  0  0  0  0  0  0  0  0  0
   -3.8011   -2.7690    1.0204 C   0  0  0  0  0  0  0  0  0  0  0  0
    2.7836    0.7801   -2.1409 C   0  0  0  0  0  0  0  0  0  0  0  0
    3.4004    1.6296    0.0784 C   0  0  0  0  0  0  0  0  0  0  0  0
    4.5318   -0.9691    0.3615 C   0  0  0  0  0  0  0  0  0  0  0  0
   -4.3691    1.9599    0.4575 C   0  0  0  0  0  0  0  0  0  0  0  0
    4.5116    1.5139    0.8101 C   0  0  0  0  0  0  0  0  0  0  0  0
    5.1679    0.2034    0.9960 C   0  0  0  0  0  0  0  0  0  0  0  0
   -2.1348   -0.8034    2.0991 H   0  0  0  0  0  0  0  0  0  0  0  0
    1.1685    2.2863   -1.8445 H   0  0  0  0  0  0  0  0  0  0  0  0
   -5.5665    3.4098    1.0152 H   0  0  0  0  0  0  0  0  0  0  0  0
   -0.5788   -1.1765    0.9766 H   0  0  0  0  0  0  0  0  0  0  0  0
    0.3994   -0.8137   -1.7390 H   0  0  0  0  0  0  0  0  0  0  0  0
   -1.4670   -3.1304    0.1181 H   0  0  0  0  0  0  0  0  0  0  0  0
   -1.6874   -2.5030   -1.4597 H   0  0  0  0  0  0  0  0  0  0  0  0
   -1.0552    1.2599    1.3826 H   0  0  0  0  0  0  0  0  0  0  0  0
   -1.6580    2.2519    0.0325 H   0  0  0  0  0  0  0  0  0  0  0  0
   -3.8849   -1.8971   -0.8399 H   0  0  0  0  0  0  0  0  0  0  0  0
    0.8449    2.3100    0.4397 H   0  0  0  0  0  0  0  0  0  0  0  0
    0.8461   -3.0298   -0.9298 H   0  0  0  0  0  0  0  0  0  0  0  0
    1.3675   -2.3709    0.6253 H   0  0  0  0  0  0  0  0  0  0  0  0
   -2.5812   -0.4549   -2.2128 H   0  0  0  0  0  0  0  0  0  0  0  0
   -1.1713    0.5714   -2.3222 H   0  0  0  0  0  0  0  0  0  0  0  0
   -2.7238    1.2604   -1.9120 H   0  0  0  0  0  0  0  0  0  0  0  0
    2.7341   -2.0102   -2.0149 H   0  0  0  0  0  0  0  0  0  0  0  0
    3.3041   -2.9506   -0.6479 H   0  0  0  0  0  0  0  0  0  0  0  0
   -3.1843   -2.7749    1.8947 H   0  0  0  0  0  0  0  0  0  0  0  0
   -3.8570   -3.7583    0.6167 H   0  0  0  0  0  0  0  0  0  0  0  0
   -4.7836   -2.4334    1.2794 H   0  0  0  0  0  0  0  0  0  0  0  0
    2.3011    0.0009   -2.6931 H   0  0  0  0  0  0  0  0  0  0  0  0
    3.8120    0.8384   -2.4305 H   0  0  0  0  0  0  0  0  0  0  0  0
    2.3019    1.7134   -2.3457 H   0  0  0  0  0  0  0  0  0  0  0  0
    2.9887    2.5711   -0.0168 H   0  0  0  0  0  0  0  0  0  0  0  0
    4.9594   -1.9000    0.4861 H   0  0  0  0  0  0  0  0  0  0  0  0
   -3.7250    2.0921    1.3016 H   0  0  0  0  0  0  0  0  0  0  0  0
   -4.0359    2.4981   -0.4052 H   0  0  0  0  0  0  0  0  0  0  0  0
    4.9182    2.3529    1.2525 H   0  0  0  0  0  0  0  0  0  0  0  0
  2 29  1  0  0  0  0
  3 15  1  0  0  0  0
  3 30  1  0  0  0  0
  4 21  2  0  0  0  0
  5 26  1  0  0  0  0
  5 31  1  0  0  0  0
  6 28  2  0  0  0  0
  7  8  1  0  0  0  0
  7 11  1  0  0  0  0
  7 13  1  0  0  0  0
  7 18  1  6  0  0  0
  8  9  1  0  0  0  0
  8 12  1  0  0  0  0
  8 32  1  1  0  0  0
  9 10  1  0  0  0  0
  9 17  1  0  0  0  0
  9 33  1  6  0  0  0
 10  1  1  1  0  0  0
 10 15  1  0  0  0  0
 10 16  1  0  0  0  0
 11  2  1  1  0  0  0
 11 14  1  0  0  0  0
 11 21  1  0  0  0  0
 12 14  1  0  0  0  0
 12 34  1  0  0  0  0
 12 35  1  0  0  0  0
 13 15  1  0  0  0  0
 13 36  1  0  0  0  0
 13 37  1  0  0  0  0
 14 22  1  0  0  0  0
 14 38  1  6  0  0  0
 15 39  1  1  0  0  0
 16 20  1  0  0  0  0
 16 23  1  6  0  0  0
 16 24  1  0  0  0  0
 17 19  1  0  0  0  0
 17 40  1  0  0  0  0
 17 41  1  0  0  0  0
 18 42  1  0  0  0  0
 18 43  1  0  0  0  0
 18 44  1  0  0  0  0
 19 20  1  0  0  0  0
 19 45  1  0  0  0  0
 19 46  1  0  0  0  0
 20 25  2  0  0  0  0
 21 26  1  0  0  0  0
 22 47  1  0  0  0  0
 22 48  1  0  0  0  0
 22 49  1  0  0  0  0
 23 50  1  0  0  0  0
 23 51  1  0  0  0  0
 23 52  1  0  0  0  0
 24 27  2  0  0  0  0
 24 53  1  0  0  0  0
 25 28  1  0  0  0  0
 25 54  1  0  0  0  0
 26 55  1  0  0  0  0
 26 56  1  0  0  0  0
 27 28  1  0  0  0  0
 27 57  1  0  0  0  0
M  END
>  <PUBCHEM_COMPOUND_CID>
5743

>  <PUBCHEM_CONFORMER_RMSD>
0.8

>  <PUBCHEM_CONFORMER_DIVERSEORDER>
1
2

>  <PUBCHEM_MMFF94_PARTIAL_CHARGES>
24
1 -0.34
10 0.34
11 0.34
15 0.28
16 0.28
19 0.14
2 -0.68
20 -0.28
21 0.45
24 -0.29
25 -0.14
26 0.34
27 -0.14
28 0.54
3 -0.68
4 -0.57
5 -0.68
50 0.4
51 0.15
52 0.4
53 0.15
56 0.15
57 0.4
6 -0.57

>  <PUBCHEM_EFFECTIVE_ROTOR_COUNT>
3.4

>  <PUBCHEM_PHARMACOPHORE_FEATURES>
12
1 2 acceptor
1 2 donor
1 3 acceptor
1 3 donor
1 4 acceptor
1 5 acceptor
1 5 donor
1 6 acceptor
5 7 8 11 12 14 rings
6 16 20 24 25 27 28 rings
6 7 8 9 10 13 15 rings
6 9 10 16 17 19 20 rings

>  <PUBCHEM_HEAVY_ATOM_COUNT>
28

>  <PUBCHEM_ATOM_DEF_STEREO_COUNT>
8

>  <PUBCHEM_ATOM_UDEF_STEREO_COUNT>
0

>  <PUBCHEM_BOND_DEF_STEREO_COUNT>
0

>  <PUBCHEM_BOND_UDEF_STEREO_COUNT>
0

>  <PUBCHEM_ISOTOPIC_ATOM_COUNT>
0

>  <PUBCHEM_COMPONENT_COUNT>
1

>  <PUBCHEM_CACTVS_TAUTO_COUNT>
9

>  <PUBCHEM_CONFORMER_ID>
0000166F00000001

>  <PUBCHEM_MMFF94_ENERGY>
98.3968

>  <PUBCHEM_FEATURE_SELFOVERLAP>
61.002

>  <PUBCHEM_SHAPE_FINGERPRINT>
10863032 1 18411991260314631359
10906281 52 18187661214667282980
11132069 177 18409452496250108550
11370993 70 18343865506619410939
11405975 8 18187368735256385840
11961588 58 13038608679331392464
12035758 1 18187656760881402577
12236239 1 17894627088776528032
12403259 118 18411417353683243082
12403814 3 17821727247689132117
12422481 6 18410289182092219874
12553582 1 18338817691685769637
12616971 3 17240205442951728652
12633257 1 17530965799632769070
13140716 1 18409730621131625450
13224815 77 18340214080238301326
13583140 156 17703787063293749195
13782708 43 14707504602517032393
14178342 30 18410014359508030727
14790565 3 17978236277147951892
15196674 1 18411702114257408574
15238133 3 18337963298210864413
15375358 24 18343866614784056079
15788980 27 17168139061447545292
15840311 113 17842569448957707473
1601671 61 18410579482920970076
16945 1 18271535225482107806
17349148 13 18410285938959225838
17980427 23 18260544580555700572
1813 80 17168145624632288820
19141452 34 18407760339470540567
20511986 3 17988065713040351075
20600515 1 18409739443242339341
20691752 17 17385725806893397222
20715895 44 18267303136528939713
21033648 29 17846205674863202099
21304253 335 18340495465062994509
21421861 104 17969493819603009570
21452121 103 18272367538704814954
21859007 373 17607233273713118261
22182313 1 18116992178670497404
23402539 116 18260540156396461146
23559900 14 18271255923985864862
296302 2 16487255491226663950
335352 9 18339929199220598142
34797466 226 16415200117296645773
34934 24 18271803497455219143
350125 39 18268435809867863219
3633792 109 18199742554033994285
3680242 22 18263081024641596618
392239 28 17702945984306911914
4340502 62 18202565055451984144
460360 51 18269575899776835923
5104073 3 18334294313976731088
59755656 215 18343025441888212862
633830 44 17168153367973117174
7064713 232 18411419522683893268
9709674 26 18271251521127655487
9981440 41 18412547600619865851

>  <PUBCHEM_SHAPE_MULTIPOLES>
539.61
11.22
2.54
1.4
1.3
0.58
0.24
-2.28
-4.28
-1.81
-0.04
0.64
-0.2
0.29

>  <PUBCHEM_SHAPE_SELFOVERLAP>
1173.076

>  <PUBCHEM_SHAPE_VOLUME>
295.4

>  <PUBCHEM_COORDINATE_TYPE>
2
5
10

>  <Energy>
184.939

$$$$
