7567
 OpenBabel09212612393D

 41 42  0  0  0  0  0  0  0  0999 V2000
   -4.7895    0.9954   -0.3534 N   0  0  0  0  0  0  0  0  0  0  0  0
    4.7856    0.9975   -0.3557 N   0  0  0  0  0  0  0  0  0  0  0  0
    0.0000   -1.9944    0.7018 C   0  0  0  0  0  0  0  0  0  0  0  0
   -1.2595   -1.2148    0.4265 C   0  0  0  0  0  0  0  0  0  0  0  0
    1.2597   -1.2137    0.4260 C   0  0  0  0  0  0  0  0  0  0  0  0
   -3.6303    0.2771   -0.0999 C   0  0  0  0  0  0  0  0  0  0  0  0
    3.6282    0.2787   -0.1001 C   0  0  0  0  0  0  0  0  0  0  0  0
   -1.8546   -1.2409   -0.8365 C   0  0  0  0  0  0  0  0  0  0  0  0
    1.8411   -0.4228    1.4198 C   0  0  0  0  0  0  0  0  0  0  0  0
   -1.8416   -0.4232    1.4194 C   0  0  0  0  0  0  0  0  0  0  0  0
    1.8551   -1.2406   -0.8375 C   0  0  0  0  0  0  0  0  0  0  0  0
   -3.0249   -0.5144   -1.0849 C   0  0  0  0  0  0  0  0  0  0  0  0
    3.0015    0.3130    1.1535 C   0  0  0  0  0  0  0  0  0  0  0  0
   -3.0032    0.3108    1.1554 C   0  0  0  0  0  0  0  0  0  0  0  0
    3.0240   -0.5145   -1.0864 C   0  0  0  0  0  0  0  0  0  0  0  0
   -5.7441    0.5278   -1.3439 C   0  0  0  0  0  0  0  0  0  0  0  0
   -5.0833    2.2144    0.3812 C   0  0  0  0  0  0  0  0  0  0  0  0
    5.7483    0.5213   -1.3352 C   0  0  0  0  0  0  0  0  0  0  0  0
    5.0732    2.2230    0.3709 C   0  0  0  0  0  0  0  0  0  0  0  0
    0.0001   -2.8678    0.0837 H   0  0  0  0  0  0  0  0  0  0  0  0
    0.0002   -2.2364    1.7440 H   0  0  0  0  0  0  0  0  0  0  0  0
   -1.4285   -1.7998   -1.5922 H   0  0  0  0  0  0  0  0  0  0  0  0
    1.4119   -0.3808    2.3574 H   0  0  0  0  0  0  0  0  0  0  0  0
   -1.4109   -0.3793    2.3563 H   0  0  0  0  0  0  0  0  0  0  0  0
    1.4292   -1.8004   -1.5926 H   0  0  0  0  0  0  0  0  0  0  0  0
   -3.4548   -0.5632   -2.0218 H   0  0  0  0  0  0  0  0  0  0  0  0
    3.4072    0.8974    1.9011 H   0  0  0  0  0  0  0  0  0  0  0  0
   -3.4100    0.8930    1.9041 H   0  0  0  0  0  0  0  0  0  0  0  0
    3.4545   -0.5637   -2.0230 H   0  0  0  0  0  0  0  0  0  0  0  0
   -5.3813   -0.3742   -1.7909 H   0  0  0  0  0  0  0  0  0  0  0  0
   -5.8691    1.2751   -2.0994 H   0  0  0  0  0  0  0  0  0  0  0  0
   -6.6849    0.3380   -0.8708 H   0  0  0  0  0  0  0  0  0  0  0  0
   -4.2870    2.4189    1.0659 H   0  0  0  0  0  0  0  0  0  0  0  0
   -5.9976    2.0923    0.9236 H   0  0  0  0  0  0  0  0  0  0  0  0
   -5.1818    3.0294   -0.3051 H   0  0  0  0  0  0  0  0  0  0  0  0
    5.3891   -0.3846   -1.7771 H   0  0  0  0  0  0  0  0  0  0  0  0
    6.6855    0.3358   -0.8532 H   0  0  0  0  0  0  0  0  0  0  0  0
    5.8791    1.2620   -2.0962 H   0  0  0  0  0  0  0  0  0  0  0  0
    4.2713    2.4329    1.0475 H   0  0  0  0  0  0  0  0  0  0  0  0
    5.1767    3.0322   -0.3215 H   0  0  0  0  0  0  0  0  0  0  0  0
    5.9831    2.1060    0.9215 H   0  0  0  0  0  0  0  0  0  0  0  0
  1  6  1  0  0  0  0
  1 16  1  0  0  0  0
  1 17  1  0  0  0  0
  2  7  1  0  0  0  0
  2 18  1  0  0  0  0
  2 19  1  0  0  0  0
  3  4  1  0  0  0  0
  3  5  1  0  0  0  0
  3 20  1  0  0  0  0
  3 21  1  0  0  0  0
  4  8  2  0  0  0  0
  4 10  1  0  0  0  0
  5  9  2  0  0  0  0
  5 11  1  0  0  0  0
  6 12  2  0  0  0  0
  6 14  1  0  0  0  0
  7 13  2  0  0  0  0
  7 15  1  0  0  0  0
  8 12  1  0  0  0  0
  8 22  1  0  0  0  0
  9 13  1  0  0  0  0
  9 23  1  0  0  0  0
 10 14  2  0  0  0  0
 10 24  1  0  0  0  0
 11 15  2  0  0  0  0
 11 25  1  0  0  0  0
 12 26  1  0  0  0  0
 13 27  1  0  0  0  0
 14 28  1  0  0  0  0
 15 29  1  0  0  0  0
 16 30  1  0  0  0  0
 16 31  1  0  0  0  0
 16 32  1  0  0  0  0
 17 33  1  0  0  0  0
 17 34  1  0  0  0  0
 17 35  1  0  0  0  0
 18 36  1  0  0  0  0
 18 37  1  0  0  0  0
 18 38  1  0  0  0  0
 19 39  1  0  0  0  0
 19 40  1  0  0  0  0
 19 41  1  0  0  0  0
M  END
>  <PUBCHEM_COMPOUND_CID>
7567

>  <PUBCHEM_CONFORMER_RMSD>
0.6

>  <PUBCHEM_CONFORMER_DIVERSEORDER>
1
3
2
6
4
5
7

>  <PUBCHEM_MMFF94_PARTIAL_CHARGES>
27
1 -0.84
10 -0.15
11 -0.15
12 -0.15
13 -0.15
14 -0.15
15 -0.15
16 0.37
17 0.37
18 0.37
19 0.37
2 -0.84
22 0.15
23 0.15
24 0.15
25 0.15
26 0.15
27 0.15
28 0.15
29 0.15
3 0.29
4 -0.14
5 -0.14
6 0.1
7 0.1
8 -0.15
9 -0.15

>  <PUBCHEM_EFFECTIVE_ROTOR_COUNT>
4

>  <PUBCHEM_PHARMACOPHORE_FEATURES>
4
1 1 cation
1 2 cation
6 4 6 8 10 12 14 rings
6 5 7 9 11 13 15 rings

>  <PUBCHEM_HEAVY_ATOM_COUNT>
19

>  <PUBCHEM_ATOM_DEF_STEREO_COUNT>
0

>  <PUBCHEM_ATOM_UDEF_STEREO_COUNT>
0

>  <PUBCHEM_BOND_DEF_STEREO_COUNT>
0

>  <PUBCHEM_BOND_UDEF_STEREO_COUNT>
0

>  <PUBCHEM_ISOTOPIC_ATOM_COUNT>
0

>  <PUBCHEM_COMPONENT_COUNT>
1

>  <PUBCHEM_CACTVS_TAUTO_COUNT>
1

>  <PUBCHEM_CONFORMER_ID>
00001D8F00000001

>  <PUBCHEM_MMFF94_ENERGY>
81.3661

>  <PUBCHEM_FEATURE_SELFOVERLAP>
20.298

>  <PUBCHEM_SHAPE_FINGERPRINT>
10014705 185 18339363066764825850
10498660 4 18413671318007529849
10670039 82 18341052921732443672
11089746 13 18408598180590328112
11796584 16 11095894717617515676
12251169 10 14345796054118154906
12363563 72 11240000070155161738
12507560 40 15213287591486754210
12596602 18 13695588853685064476
12633257 1 14996290240065715101
12670546 177 17203610384596461781
12892183 10 14418122981317951611
12954195 1 13829860046355363123
13103583 49 11530755973181703653
13675066 3 13262683591437441859
14123255 352 18334858337598031704
1420 369 9871752394650657528
14251764 30 13398337032568053117
14251764 38 17976538639547093372
14341114 176 13767923520848139654
14341114 328 15502382239638528236
14576447 43 14908186335210192214
14848178 5 10087639290729879537
15183329 4 17131840819697477796
15188451 53 11891630043868883801
15209289 33 8142091957135441764
15209294 21 16877943875418595162
15210252 30 18411983559497032864
15342168 16 18186517687845626303
16752209 62 14261353509871260175
17780758 139 11746924408619804708
17834072 32 18335703879272642088
17870717 6 15123792881747024813
17959699 21 18343863303316967065
1813 80 9151178692197526058
19050596 39 14418141733060912787
193927 3 11600007673500957164
19784866 240 11455891381945618827
200 152 13398632753249663923
20028762 73 10881694519531396033
20374829 77 12319741349487641451
20645477 70 13973672966505029787
20871999 31 16343708699038416947
21065199 12 14129330763266953539
21637258 2 11671781542183992708
221357 26 16702019772943445569
22393880 68 17203322334299316318
22646028 28 10952051156110849002
231179 274 18335703866725019186
23402655 69 17846219933959445394
23503953 91 15574718010033906994
23557571 272 18336838605115913770
23559900 14 15841256125639750706
26918003 58 11530483337559002071
270888 7 18334574641944368229
2838139 119 18412542089538261292
2916195 48 18336265746915183040
3009799 131 17489590057148135330
312425 54 11674875580847985765
3286 77 8790880787347460734
3472631 163 18410289233352272325
351380 3 11527946759648787397
4028521 119 18202284701482700521
42 15 11891336426570870215
4259306 186 13542468661103406404
463206 1 11743828171260696005
465052 167 11599428261587016245
474 4 18334293175757480493
5104073 3 17675923192130155378
56616090 284 15626221325571328199
57724786 102 17967816011913349684
5924683 9 15141253182299086161
59682541 35 17968105257213834721
59682541 52 17274540923507965252
633830 44 18266176137347709655
76465 3 10231744587975600601
7808743 9 18335137617672484776
7970288 3 10015577307452062309

>  <PUBCHEM_SHAPE_MULTIPOLES>
381.05
13.02
1.82
1.44
0.03
0.57
-0.05
9.31
4.45
0
-0.17
0.01
-0.13
0

>  <PUBCHEM_SHAPE_SELFOVERLAP>
799.236

>  <PUBCHEM_SHAPE_VOLUME>
216.7

>  <PUBCHEM_COORDINATE_TYPE>
2
5
10

>  <Energy>
54.8741

$$$$
