80630
 OpenBabel09212612403D

 29 30  0  0  0  0  0  0  0  0999 V2000
    5.5718   -0.0090   -0.4081 O   0  0  0  0  0  0  0  0  0  0  0  0
    0.0138   -0.0216    0.6911 C   0  0  0  0  0  0  0  0  0  0  0  0
   -0.8047   -0.0187   -0.6024 C   0  0  0  0  0  0  0  0  0  0  0  0
    1.4969   -0.0092    0.4095 C   0  0  0  0  0  0  0  0  0  0  0  0
   -2.2891   -0.0071   -0.3313 C   0  0  0  0  0  0  0  0  0  0  0  0
    2.2023   -1.2111    0.2553 C   0  0  0  0  0  0  0  0  0  0  0  0
    2.1816    1.2063    0.2704 C   0  0  0  0  0  0  0  0  0  0  0  0
   -2.9951   -1.2092   -0.1915 C   0  0  0  0  0  0  0  0  0  0  0  0
   -2.9780    1.2061   -0.2000 C   0  0  0  0  0  0  0  0  0  0  0  0
    3.5707   -1.1950   -0.0176 C   0  0  0  0  0  0  0  0  0  0  0  0
    3.5510    1.2227   -0.0039 C   0  0  0  0  0  0  0  0  0  0  0  0
    4.2343    0.0195   -0.1433 C   0  0  0  0  0  0  0  0  0  0  0  0
   -4.3685   -1.1974    0.0588 C   0  0  0  0  0  0  0  0  0  0  0  0
   -4.3512    1.2158    0.0502 C   0  0  0  0  0  0  0  0  0  0  0  0
   -5.0462    0.0147    0.1776 C   0  0  0  0  0  0  0  0  0  0  0  0
    6.0141   -0.8301   -0.4985 H   0  0  0  0  0  0  0  0  0  0  0  0
   -0.2260   -0.9008    1.2518 H   0  0  0  0  0  0  0  0  0  0  0  0
   -0.2296    0.8618    1.2435 H   0  0  0  0  0  0  0  0  0  0  0  0
   -0.5632   -0.8954   -1.1662 H   0  0  0  0  0  0  0  0  0  0  0  0
   -0.5609    0.8701   -1.1461 H   0  0  0  0  0  0  0  0  0  0  0  0
    1.7070   -2.1121    0.3439 H   0  0  0  0  0  0  0  0  0  0  0  0
    1.6694    2.0965    0.3715 H   0  0  0  0  0  0  0  0  0  0  0  0
   -2.4968   -2.1091   -0.2741 H   0  0  0  0  0  0  0  0  0  0  0  0
   -2.4668    2.0982   -0.2888 H   0  0  0  0  0  0  0  0  0  0  0  0
    4.0878   -2.0815   -0.1255 H   0  0  0  0  0  0  0  0  0  0  0  0
    4.0514    2.1199   -0.1023 H   0  0  0  0  0  0  0  0  0  0  0  0
   -4.8824   -2.0870    0.1559 H   0  0  0  0  0  0  0  0  0  0  0  0
   -4.8523    2.1134    0.1409 H   0  0  0  0  0  0  0  0  0  0  0  0
   -6.0619    0.0226    0.3598 H   0  0  0  0  0  0  0  0  0  0  0  0
  1 12  1  0  0  0  0
  1 16  1  0  0  0  0
  2  3  1  0  0  0  0
  2  4  1  0  0  0  0
  2 17  1  0  0  0  0
  2 18  1  0  0  0  0
  3  5  1  0  0  0  0
  3 19  1  0  0  0  0
  3 20  1  0  0  0  0
  4  6  2  0  0  0  0
  4  7  1  0  0  0  0
  5  8  2  0  0  0  0
  5  9  1  0  0  0  0
  6 10  1  0  0  0  0
  6 21  1  0  0  0  0
  7 11  2  0  0  0  0
  7 22  1  0  0  0  0
  8 13  1  0  0  0  0
  8 23  1  0  0  0  0
  9 14  2  0  0  0  0
  9 24  1  0  0  0  0
 10 12  2  0  0  0  0
 10 25  1  0  0  0  0
 11 12  1  0  0  0  0
 11 26  1  0  0  0  0
 13 15  2  0  0  0  0
 13 27  1  0  0  0  0
 14 15  1  0  0  0  0
 14 28  1  0  0  0  0
 15 29  1  0  0  0  0
M  END
>  <PUBCHEM_COMPOUND_CID>
80630

>  <PUBCHEM_CONFORMER_RMSD>
0.6

>  <PUBCHEM_CONFORMER_DIVERSEORDER>
1
5
3
4
2
6

>  <PUBCHEM_MMFF94_PARTIAL_CHARGES>
25
1 -0.53
10 -0.15
11 -0.15
12 0.08
13 -0.15
14 -0.15
15 -0.15
2 0.14
20 0.15
21 0.15
22 0.15
23 0.15
24 0.15
25 0.15
26 0.15
27 0.15
28 0.15
29 0.45
3 0.14
4 -0.14
5 -0.14
6 -0.15
7 -0.15
8 -0.15
9 -0.15

>  <PUBCHEM_EFFECTIVE_ROTOR_COUNT>
3

>  <PUBCHEM_PHARMACOPHORE_FEATURES>
3
1 1 donor
6 4 6 7 10 11 12 rings
6 5 8 9 13 14 15 rings

>  <PUBCHEM_HEAVY_ATOM_COUNT>
15

>  <PUBCHEM_ATOM_DEF_STEREO_COUNT>
0

>  <PUBCHEM_ATOM_UDEF_STEREO_COUNT>
0

>  <PUBCHEM_BOND_DEF_STEREO_COUNT>
0

>  <PUBCHEM_BOND_UDEF_STEREO_COUNT>
0

>  <PUBCHEM_ISOTOPIC_ATOM_COUNT>
0

>  <PUBCHEM_COMPONENT_COUNT>
1

>  <PUBCHEM_CACTVS_TAUTO_COUNT>
2

>  <PUBCHEM_CONFORMER_ID>
00013AF600000001

>  <PUBCHEM_MMFF94_ENERGY>
37.6848

>  <PUBCHEM_FEATURE_SELFOVERLAP>
15.223

>  <PUBCHEM_SHAPE_FINGERPRINT>
10616163 171 18340768242799976567
10680689 15 17821728330168706709
11287383 113 18335422395742601856
11615757 297 17988927794565154529
12107183 9 17690279309575054009
12236239 1 17917994975368876216
128620 24 15574713586365382551
13167823 11 18410853265579591883
13675066 3 17775559844975564114
13760787 19 18413105056771661615
14123238 8 18260829297557245399
14341114 176 18410863165600320641
15239154 128 18410575084900832529
15242433 33 18411981347155663158
17834072 33 18410855485924358973
17844677 252 18412833503217059441
18186145 218 18114173133819893672
19489759 90 9079117748021329151
200 152 18202002131220777122
20645477 70 18341613655704260550
21267235 1 18411427219128228399
22485316 2 18409727352771867227
2297311 6 18343311361728644301
23402539 116 17676482839575407172
23402655 69 18411136922515434644
23557571 272 18336267859865299005
23559900 14 18412538838421961801
300161 21 18335692836890300181
3268164 11 16805312289282502143
3545911 37 18410575080690033901
42 15 18410012130620412245
4214541 1 18411418397624137521
42788 4 18410856563950594124
474 4 17459474527377600340
4990 188 18343026583964196638
5104073 3 18410290306882892371
522135 26 18413106147951551258
5281201 14 18335140873526636396
542803 24 18040434395124874197
58051976 100 18343016731145819359
77779 3 18410855460365525649
9709674 26 18410579495843158815

>  <PUBCHEM_SHAPE_MULTIPOLES>
302.82
11.78
1.4
0.71
0.43
0
0.01
0.05
-0.6
-0.27
0.02
0
0
0.01

>  <PUBCHEM_SHAPE_SELFOVERLAP>
644.353

>  <PUBCHEM_SHAPE_VOLUME>
168.6

>  <PUBCHEM_COORDINATE_TYPE>
2
5
10

>  <Energy>
32.5374

$$$$
