13109
 OpenBabel09212612403D

 51 54  0  0  1  0  0  0  0  0999 V2000
    4.6560   -0.6948   -0.2477 O   0  0  0  0  0  0  0  0  0  0  0  0
   -6.1784   -0.1203    0.9201 O   0  0  0  0  0  0  0  0  0  0  0  0
    2.1916   -0.3599   -0.2699 C   0  0  1  0  0  0  0  0  0  0  0  0
    1.3720    0.9195    0.0239 C   0  0  2  0  0  0  0  0  0  0  0  0
   -0.0564    0.8523   -0.5264 C   0  0  1  0  0  0  0  0  0  0  0  0
   -0.7921   -0.3605    0.1157 C   0  0  2  0  0  0  0  0  0  0  0  0
    3.5836    0.0638    0.2912 C   0  0  2  0  0  0  0  0  0  0  0  0
    1.4765   -1.5410    0.4200 C   0  0  0  0  0  0  0  0  0  0  0  0
    2.2849    2.0487   -0.4456 C   0  0  0  0  0  0  0  0  0  0  0  0
    0.0144   -1.6737   -0.0318 C   0  0  0  0  0  0  0  0  0  0  0  0
   -2.2446   -0.4907   -0.4336 C   0  0  2  0  0  0  0  0  0  0  0  0
    3.7142    1.5366   -0.1743 C   0  0  0  0  0  0  0  0  0  0  0  0
   -0.8374    2.1425   -0.2471 C   0  0  0  0  0  0  0  0  0  0  0  0
    2.3218   -0.6772   -1.7900 C   0  0  0  0  0  0  0  0  0  0  0  0
   -2.2455    2.0557   -0.8230 C   0  0  0  0  0  0  0  0  0  0  0  0
   -2.9888    0.8358   -0.3375 C   0  0  0  0  0  0  0  0  0  0  0  0
   -2.9981   -1.6233    0.2948 C   0  0  0  0  0  0  0  0  0  0  0  0
    3.1097   -1.9573   -2.0273 C   0  0  0  0  0  0  0  0  0  0  0  0
    3.6761   -0.0107    1.7656 C   0  0  0  0  0  0  0  0  0  0  0  0
   -4.4951   -1.5888    0.0401 C   0  0  0  0  0  0  0  0  0  0  0  0
   -4.2494    0.9540    0.1061 C   0  0  0  0  0  0  0  0  0  0  0  0
   -5.0536   -0.2469    0.4293 C   0  0  0  0  0  0  0  0  0  0  0  0
    3.7515   -0.0685    2.9559 C   0  0  0  0  0  0  0  0  0  0  0  0
    4.6196   -0.6632   -1.2165 H   0  0  0  0  0  0  0  0  0  0  0  0
    1.1364    1.0769    1.0557 H   0  0  0  0  0  0  0  0  0  0  0  0
   -0.0012    0.7342   -1.5884 H   0  0  0  0  0  0  0  0  0  0  0  0
   -0.8672   -0.1736    1.1666 H   0  0  0  0  0  0  0  0  0  0  0  0
    1.4979   -1.3867    1.4786 H   0  0  0  0  0  0  0  0  0  0  0  0
    1.9885   -2.4406    0.1488 H   0  0  0  0  0  0  0  0  0  0  0  0
    2.0934    2.9437    0.1087 H   0  0  0  0  0  0  0  0  0  0  0  0
    2.1310    2.2911   -1.4764 H   0  0  0  0  0  0  0  0  0  0  0  0
    0.0020   -1.9665   -1.0610 H   0  0  0  0  0  0  0  0  0  0  0  0
   -0.4482   -2.4032    0.5997 H   0  0  0  0  0  0  0  0  0  0  0  0
   -2.1924   -0.7477   -1.4709 H   0  0  0  0  0  0  0  0  0  0  0  0
    4.2999    1.5895   -1.0682 H   0  0  0  0  0  0  0  0  0  0  0  0
    4.1997    2.1322    0.5703 H   0  0  0  0  0  0  0  0  0  0  0  0
   -0.3247    2.9675   -0.6959 H   0  0  0  0  0  0  0  0  0  0  0  0
   -0.9069    2.2799    0.8117 H   0  0  0  0  0  0  0  0  0  0  0  0
    2.8242    0.1348   -2.2729 H   0  0  0  0  0  0  0  0  0  0  0  0
    1.3385   -0.8092   -2.1908 H   0  0  0  0  0  0  0  0  0  0  0  0
   -2.1789    2.0159   -1.8902 H   0  0  0  0  0  0  0  0  0  0  0  0
   -2.7862    2.9196   -0.4970 H   0  0  0  0  0  0  0  0  0  0  0  0
   -2.8273   -1.5269    1.3467 H   0  0  0  0  0  0  0  0  0  0  0  0
   -2.6271   -2.5533   -0.0824 H   0  0  0  0  0  0  0  0  0  0  0  0
    4.0982   -1.8459   -1.6331 H   0  0  0  0  0  0  0  0  0  0  0  0
    3.1646   -2.1527   -3.0779 H   0  0  0  0  0  0  0  0  0  0  0  0
    2.6203   -2.7733   -1.5379 H   0  0  0  0  0  0  0  0  0  0  0  0
   -4.9706   -2.3520    0.6199 H   0  0  0  0  0  0  0  0  0  0  0  0
   -4.6778   -1.7563   -1.0008 H   0  0  0  0  0  0  0  0  0  0  0  0
   -4.6633    1.8920    0.2234 H   0  0  0  0  0  0  0  0  0  0  0  0
    3.8143   -0.1166    3.9467 H   0  0  0  0  0  0  0  0  0  0  0  0
  1  7  1  0  0  0  0
  1 24  1  0  0  0  0
  2 22  2  0  0  0  0
  3  4  1  0  0  0  0
  3  7  1  0  0  0  0
  3  8  1  0  0  0  0
  3 14  1  6  0  0  0
  4  5  1  0  0  0  0
  4  9  1  0  0  0  0
  4 25  1  1  0  0  0
  5  6  1  0  0  0  0
  5 13  1  0  0  0  0
  5 26  1  6  0  0  0
  6 10  1  0  0  0  0
  6 11  1  0  0  0  0
  6 27  1  1  0  0  0
  7 12  1  0  0  0  0
  7 19  1  1  0  0  0
  8 10  1  0  0  0  0
  8 28  1  0  0  0  0
  8 29  1  0  0  0  0
  9 12  1  0  0  0  0
  9 30  1  0  0  0  0
  9 31  1  0  0  0  0
 10 32  1  0  0  0  0
 10 33  1  0  0  0  0
 11 16  1  0  0  0  0
 11 17  1  0  0  0  0
 11 34  1  6  0  0  0
 12 35  1  0  0  0  0
 12 36  1  0  0  0  0
 13 15  1  0  0  0  0
 13 37  1  0  0  0  0
 13 38  1  0  0  0  0
 14 18  1  0  0  0  0
 14 39  1  0  0  0  0
 14 40  1  0  0  0  0
 15 16  1  0  0  0  0
 15 41  1  0  0  0  0
 15 42  1  0  0  0  0
 16 21  2  0  0  0  0
 17 20  1  0  0  0  0
 17 43  1  0  0  0  0
 17 44  1  0  0  0  0
 18 45  1  0  0  0  0
 18 46  1  0  0  0  0
 18 47  1  0  0  0  0
 19 23  3  0  0  0  0
 20 22  1  0  0  0  0
 20 48  1  0  0  0  0
 20 49  1  0  0  0  0
 21 22  1  0  0  0  0
 21 50  1  0  0  0  0
 23 51  1  0  0  0  0
M  END
>  <PUBCHEM_COMPOUND_CID>
13109

>  <PUBCHEM_CONFORMER_RMSD>
0.6

>  <PUBCHEM_CONFORMER_DIVERSEORDER>
1

>  <PUBCHEM_MMFF94_PARTIAL_CHARGES>
14
1 -0.68
11 0.14
15 0.14
16 -0.28
19 -0.2
2 -0.57
20 0.06
21 -0.14
22 0.49
23 -0.18
47 0.4
50 0.15
51 0.18
7 0.48

>  <PUBCHEM_EFFECTIVE_ROTOR_COUNT>
2.8

>  <PUBCHEM_PHARMACOPHORE_FEATURES>
9
1 1 acceptor
1 1 donor
1 18 hydrophobe
1 2 acceptor
1 23 hydrophobe
5 3 4 7 9 12 rings
6 11 16 17 20 21 22 rings
6 3 4 5 6 8 10 rings
6 5 6 11 13 15 16 rings

>  <PUBCHEM_HEAVY_ATOM_COUNT>
23

>  <PUBCHEM_ATOM_DEF_STEREO_COUNT>
6

>  <PUBCHEM_ATOM_UDEF_STEREO_COUNT>
0

>  <PUBCHEM_BOND_DEF_STEREO_COUNT>
0

>  <PUBCHEM_BOND_UDEF_STEREO_COUNT>
0

>  <PUBCHEM_ISOTOPIC_ATOM_COUNT>
0

>  <PUBCHEM_COMPONENT_COUNT>
1

>  <PUBCHEM_CACTVS_TAUTO_COUNT>
8

>  <PUBCHEM_CONFORMER_ID>
0000333500000001

>  <PUBCHEM_MMFF94_ENERGY>
73.6491

>  <PUBCHEM_FEATURE_SELFOVERLAP>
45.765

>  <PUBCHEM_SHAPE_FINGERPRINT>
11132069 177 18412824681691323775
11578080 2 16915087663512566074
12236239 1 17168145607336355084
12403259 415 18131061624307664144
12553582 1 18334293163215489631
12633257 1 18336539499450907881
12788726 201 18334018272076159945
12839892 36 18262500529562317235
13134695 92 17059772188279407918
13140716 1 18263921223081023603
13224815 77 18260830401596027109
13533116 47 17346326951391277007
13583140 156 17241583139748364708
13675066 3 18060134328011911237
14022347 108 18187379721803964262
14081887 123 18341321215601781113
14178342 30 18192703441242051520
14252887 29 18202569457772220733
14790565 3 17398683783603697133
15196674 1 18336548304329192749
15536298 74 18343589529490723399
15788980 27 16008742520491617399
16945 1 18263079920571166196
17349148 13 17603301544511610291
1813 80 17530972397319877317
18681886 176 18269559502251608900
19141452 34 18202006555812876959
20261772 1 18411697712058205503
21033648 29 17774705490086507560
21069387 34 15719668754027543408
21267235 1 18335148578502818703
21421861 104 18041274379037717242
22122407 14 15626234532828256219
22182313 1 18270112396915879133
23366157 5 17606683797230418197
23503953 91 18343018921837473081
23557571 272 18341334409509134109
23559900 14 18269558247566945870
239999 70 18411144636340021534
25222932 49 17606688195013042547
2748010 2 18197773311111683388
3004659 81 18113900468143094541
312423 11 16298669378296429381
3286 77 17385714786059991764
350125 39 18408325510043951508
3680242 22 18259984838657804833
4340502 62 16271928246270970991
465052 167 17967816050183050770
495365 180 17203606004120430786
5104073 3 18268707221092569873
5374978 207 18260828215383878945
6823239 73 18341341002589869342
9709674 26 18410863182769835423

>  <PUBCHEM_SHAPE_MULTIPOLES>
461.59
10.38
2.13
1.58
9.43
0.36
-0.71
-1.28
-3.04
0.1
0.62
-2.54
-0.43
0.79

>  <PUBCHEM_SHAPE_SELFOVERLAP>
990.555

>  <PUBCHEM_SHAPE_VOLUME>
251.4

>  <PUBCHEM_COORDINATE_TYPE>
2
5
10

>  <Energy>
72.5324

$$$$
