5280443
 OpenBabel09212612393D

 30 32  0  0  0  0  0  0  0  0999 V2000
   -0.0793    0.7716   -0.0509 O   0  0  0  0  0  0  0  0  0  0  0  0
   -4.1572   -1.8663    0.1113 O   0  0  0  0  0  0  0  0  0  0  0  0
   -1.7462   -2.9245    0.1960 O   0  0  0  0  0  0  0  0  0  0  0  0
   -4.3049    2.8741   -0.1997 O   0  0  0  0  0  0  0  0  0  0  0  0
    6.2567    0.6815   -0.0184 O   0  0  0  0  0  0  0  0  0  0  0  0
   -2.0796   -0.6046    0.0401 C   0  0  0  0  0  0  0  0  0  0  0  0
   -1.4453    0.6332   -0.0422 C   0  0  0  0  0  0  0  0  0  0  0  0
    0.7055   -0.3707    0.0311 C   0  0  0  0  0  0  0  0  0  0  0  0
    2.1637   -0.1153    0.0137 C   0  0  0  0  0  0  0  0  0  0  0  0
   -1.2468   -1.8064    0.1302 C   0  0  0  0  0  0  0  0  0  0  0  0
    0.2082   -1.6132    0.1342 C   0  0  0  0  0  0  0  0  0  0  0  0
   -3.4757   -0.6814    0.0374 C   0  0  0  0  0  0  0  0  0  0  0  0
   -2.2063    1.7994   -0.1220 C   0  0  0  0  0  0  0  0  0  0  0  0
   -3.5960    1.7118   -0.1210 C   0  0  0  0  0  0  0  0  0  0  0  0
   -4.2400    0.4793   -0.0428 C   0  0  0  0  0  0  0  0  0  0  0  0
    3.0640   -1.0332   -0.5557 C   0  0  0  0  0  0  0  0  0  0  0  0
    2.6827    1.0759    0.5480 C   0  0  0  0  0  0  0  0  0  0  0  0
    4.4394   -0.7835   -0.5689 C   0  0  0  0  0  0  0  0  0  0  0  0
    4.0579    1.3301    0.5307 C   0  0  0  0  0  0  0  0  0  0  0  0
    4.9239    0.3981   -0.0235 C   0  0  0  0  0  0  0  0  0  0  0  0
   -3.6867   -2.6747    0.1668 H   0  0  0  0  0  0  0  0  0  0  0  0
   -3.8553    3.6945   -0.2516 H   0  0  0  0  0  0  0  0  0  0  0  0
    6.8667    0.0721   -0.3852 H   0  0  0  0  0  0  0  0  0  0  0  0
    0.8419   -2.4236    0.2154 H   0  0  0  0  0  0  0  0  0  0  0  0
   -1.7431    2.7197   -0.1813 H   0  0  0  0  0  0  0  0  0  0  0  0
   -5.2707    0.4273   -0.0444 H   0  0  0  0  0  0  0  0  0  0  0  0
    2.7031   -1.9063   -0.9711 H   0  0  0  0  0  0  0  0  0  0  0  0
    2.0410    1.7722    0.9585 H   0  0  0  0  0  0  0  0  0  0  0  0
    5.0892   -1.4716   -0.9804 H   0  0  0  0  0  0  0  0  0  0  0  0
    4.4273    2.2078    0.9287 H   0  0  0  0  0  0  0  0  0  0  0  0
  1  7  1  0  0  0  0
  1  8  1  0  0  0  0
  2 12  1  0  0  0  0
  2 21  1  0  0  0  0
  3 10  2  0  0  0  0
  4 14  1  0  0  0  0
  4 22  1  0  0  0  0
  5 20  1  0  0  0  0
  5 23  1  0  0  0  0
  6  7  1  0  0  0  0
  6 10  1  0  0  0  0
  6 12  2  0  0  0  0
  7 13  2  0  0  0  0
  8  9  1  0  0  0  0
  8 11  2  0  0  0  0
  9 16  2  0  0  0  0
  9 17  1  0  0  0  0
 10 11  1  0  0  0  0
 11 24  1  0  0  0  0
 12 15  1  0  0  0  0
 13 14  1  0  0  0  0
 13 25  1  0  0  0  0
 14 15  2  0  0  0  0
 15 26  1  0  0  0  0
 16 18  1  0  0  0  0
 16 27  1  0  0  0  0
 17 19  2  0  0  0  0
 17 28  1  0  0  0  0
 18 20  2  0  0  0  0
 18 29  1  0  0  0  0
 19 20  1  0  0  0  0
 19 30  1  0  0  0  0
M  END
>  <PUBCHEM_COMPOUND_CID>
5280443

>  <PUBCHEM_CONFORMER_RMSD>
0.6

>  <PUBCHEM_CONFORMER_DIVERSEORDER>
1

>  <PUBCHEM_MMFF94_PARTIAL_CHARGES>
30
1 -0.16
10 0.47
11 -0.14
12 0.08
13 -0.15
14 0.08
15 -0.15
16 -0.15
17 -0.15
18 -0.15
19 -0.15
2 -0.53
20 0.08
21 0.15
22 0.15
23 0.15
24 0.15
25 0.15
26 0.15
27 0.15
28 0.45
29 0.45
3 -0.57
30 0.45
4 -0.53
5 -0.53
6 0.09
7 0.08
8 0.05
9 0.03

>  <PUBCHEM_EFFECTIVE_ROTOR_COUNT>
1

>  <PUBCHEM_PHARMACOPHORE_FEATURES>
8
1 1 acceptor
1 2 donor
1 3 acceptor
1 4 donor
1 5 donor
6 1 6 7 8 10 11 rings
6 6 7 12 13 14 15 rings
6 9 16 17 18 19 20 rings

>  <PUBCHEM_HEAVY_ATOM_COUNT>
20

>  <PUBCHEM_ATOM_DEF_STEREO_COUNT>
0

>  <PUBCHEM_ATOM_UDEF_STEREO_COUNT>
0

>  <PUBCHEM_BOND_DEF_STEREO_COUNT>
0

>  <PUBCHEM_BOND_UDEF_STEREO_COUNT>
0

>  <PUBCHEM_ISOTOPIC_ATOM_COUNT>
0

>  <PUBCHEM_COMPONENT_COUNT>
1

>  <PUBCHEM_CACTVS_TAUTO_COUNT>
57

>  <PUBCHEM_CONFORMER_ID>
005092BB00000001

>  <PUBCHEM_MMFF94_ENERGY>
60.7436

>  <PUBCHEM_FEATURE_SELFOVERLAP>
40.625

>  <PUBCHEM_SHAPE_FINGERPRINT>
10014705 185 18335983090743610973
10319926 262 18339344337187947850
10411042 1 17833271196427205891
10493431 412 18339369544277550625
10498660 4 18336260146151624709
10608611 8 18342173405853837512
10646746 165 18410292501880224548
11315181 36 17967532415338923724
12107183 9 17973996255225508682
12173636 292 18409726227717107541
12236239 1 17458341966376888130
12390115 104 18270696268119625369
12403259 415 18202279234227041088
12500047 106 18411979165633848254
13073987 5 18334573538601782738
13140716 1 17974859676764465403
13544592 145 18269848531875060550
14508225 48 18124582335750861655
14790565 3 17908712730609502257
15042514 8 18192436496683379403
15196674 1 18411138009184468990
15375358 24 18272089392275024390
17844677 252 18338524131077601056
18186145 218 18201727210401115800
200 152 17060622204808618226
20510252 161 18342459253144016673
20645477 56 18410013234284757832
20645477 70 17203058396143606462
21033648 29 18271516554985427096
21065198 57 18411699920035301594
21236236 1 18412826893710328947
21267235 1 18337116777299593123
21279426 13 18269277859449011198
21421861 104 17750502976618702298
23402539 116 18412538829647092654
23402655 69 18131067100338114972
23557571 272 18342746247148492668
23559900 14 18271807861775124550
245318 6 16448986100328701468
283562 15 18410291424461079675
2916195 48 18342730849902058064
3004659 81 18335425613612532158
335352 9 18267022748231475478
350125 39 18410298038462750009
3545911 37 18342460348455732712
4028521 119 18341892965631935697
4214541 1 18411419514231212472
474 4 16879077545412114420
495365 180 17346021334593014002
5104073 3 18410011005465809410
542803 24 17530686524359763644
559249 180 18337386046670377618
633830 44 18199743644401676445
69090 78 18272086119177836790
77779 3 18412263930592437412
9709674 26 18342463655380539086

>  <PUBCHEM_SHAPE_MULTIPOLES>
382.24
10.96
2.41
0.66
9.09
0.24
0
-3.75
0.48
-2.84
-0.06
0.21
-0.01
0.71

>  <PUBCHEM_SHAPE_SELFOVERLAP>
856.39

>  <PUBCHEM_SHAPE_VOLUME>
201.3

>  <PUBCHEM_COORDINATE_TYPE>
2
5
10

>  <Energy>
20.9838

$$$$
