5881
 OpenBabel09212612393D

 49 52  0  0  1  0  0  0  0  0999 V2000
    5.0457    1.0386   -0.6595 O   0  0  0  0  0  0  0  0  0  0  0  0
   -5.8835   -0.0814   -0.2914 O   0  0  0  0  0  0  0  0  0  0  0  0
   -0.1476    0.4496   -0.2872 C   0  0  1  0  0  0  0  0  0  0  0  0
    0.6422   -0.7778    0.2602 C   0  0  2  0  0  0  0  0  0  0  0  0
    2.0784   -0.7230   -0.2660 C   0  0  1  0  0  0  0  0  0  0  0  0
    2.8037    0.5675    0.1591 C   0  0  2  0  0  0  0  0  0  0  0  0
   -1.6314    0.4715    0.2574 C   0  0  2  0  0  0  0  0  0  0  0  0
    0.6161    1.7924   -0.1066 C   0  0  0  0  0  0  0  0  0  0  0  0
    2.0973    1.7357   -0.5206 C   0  0  0  0  0  0  0  0  0  0  0  0
    3.0551   -1.8383    0.0904 C   0  0  0  0  0  0  0  0  0  0  0  0
   -0.0473   -2.0821   -0.1637 C   0  0  0  0  0  0  0  0  0  0  0  0
   -2.2552   -0.9292    0.1795 C   0  0  0  0  0  0  0  0  0  0  0  0
   -2.4618    1.4525   -0.6230 C   0  0  0  0  0  0  0  0  0  0  0  0
    4.1891    0.2196   -0.3556 C   0  0  0  0  0  0  0  0  0  0  0  0
    4.3969   -1.2849   -0.4116 C   0  0  0  0  0  0  0  0  0  0  0  0
   -1.5358   -2.0444   -0.0226 C   0  0  0  0  0  0  0  0  0  0  0  0
    2.9395    0.7925    1.6760 C   0  0  0  0  0  0  0  0  0  0  0  0
   -1.6843    0.9354    1.7324 C   0  0  0  0  0  0  0  0  0  0  0  0
   -3.7565   -1.0211    0.3342 C   0  0  0  0  0  0  0  0  0  0  0  0
   -3.9729    1.3767   -0.3985 C   0  0  0  0  0  0  0  0  0  0  0  0
   -4.4891   -0.0471   -0.5855 C   0  0  2  0  0  0  0  0  0  0  0  0
   -6.2166   -0.9848   -0.4089 H   0  0  0  0  0  0  0  0  0  0  0  0
   -0.2248    0.3321   -1.3480 H   0  0  0  0  0  0  0  0  0  0  0  0
    0.6616   -0.7486    1.3296 H   0  0  0  0  0  0  0  0  0  0  0  0
    1.8665   -0.8094   -1.3112 H   0  0  0  0  0  0  0  0  0  0  0  0
    0.5664    2.0707    0.9254 H   0  0  0  0  0  0  0  0  0  0  0  0
    0.1435    2.5043   -0.7507 H   0  0  0  0  0  0  0  0  0  0  0  0
    2.1608    1.6149   -1.5818 H   0  0  0  0  0  0  0  0  0  0  0  0
    2.5729    2.6461   -0.2209 H   0  0  0  0  0  0  0  0  0  0  0  0
    2.8010   -2.7485   -0.4114 H   0  0  0  0  0  0  0  0  0  0  0  0
    3.0593   -2.0823    1.1322 H   0  0  0  0  0  0  0  0  0  0  0  0
    0.3303   -2.8776    0.4441 H   0  0  0  0  0  0  0  0  0  0  0  0
    0.1664   -2.2275   -1.2020 H   0  0  0  0  0  0  0  0  0  0  0  0
   -2.2644    1.2291   -1.6507 H   0  0  0  0  0  0  0  0  0  0  0  0
   -2.1607    2.4413   -0.3464 H   0  0  0  0  0  0  0  0  0  0  0  0
    4.5963   -1.6086   -1.4118 H   0  0  0  0  0  0  0  0  0  0  0  0
    5.2330   -1.6168    0.1678 H   0  0  0  0  0  0  0  0  0  0  0  0
   -2.0460   -2.9392   -0.0851 H   0  0  0  0  0  0  0  0  0  0  0  0
    1.9833    1.0418    2.0866 H   0  0  0  0  0  0  0  0  0  0  0  0
    3.6254    1.5933    1.8578 H   0  0  0  0  0  0  0  0  0  0  0  0
    3.3040   -0.1011    2.1379 H   0  0  0  0  0  0  0  0  0  0  0  0
   -1.1143    0.2626    2.3386 H   0  0  0  0  0  0  0  0  0  0  0  0
   -2.7004    0.9437    2.0675 H   0  0  0  0  0  0  0  0  0  0  0  0
   -1.2746    1.9207    1.8114 H   0  0  0  0  0  0  0  0  0  0  0  0
   -4.0132   -0.7974    1.3486 H   0  0  0  0  0  0  0  0  0  0  0  0
   -4.0551   -2.0136    0.0683 H   0  0  0  0  0  0  0  0  0  0  0  0
   -4.4624    2.0201   -1.0994 H   0  0  0  0  0  0  0  0  0  0  0  0
   -4.1816    1.6831    0.6053 H   0  0  0  0  0  0  0  0  0  0  0  0
   -4.3147   -0.3421   -1.5992 H   0  0  0  0  0  0  0  0  0  0  0  0
  1 14  2  0  0  0  0
  2 21  1  0  0  0  0
  2 22  1  0  0  0  0
  3  4  1  0  0  0  0
  3  7  1  0  0  0  0
  3  8  1  0  0  0  0
  3 23  1  6  0  0  0
  4  5  1  0  0  0  0
  4 11  1  0  0  0  0
  4 24  1  1  0  0  0
  5  6  1  0  0  0  0
  5 10  1  0  0  0  0
  5 25  1  6  0  0  0
  6  9  1  0  0  0  0
  6 14  1  0  0  0  0
  6 17  1  1  0  0  0
  7 12  1  0  0  0  0
  7 13  1  0  0  0  0
  7 18  1  1  0  0  0
  8  9  1  0  0  0  0
  8 26  1  0  0  0  0
  8 27  1  0  0  0  0
  9 28  1  0  0  0  0
  9 29  1  0  0  0  0
 10 15  1  0  0  0  0
 10 30  1  0  0  0  0
 10 31  1  0  0  0  0
 11 16  1  0  0  0  0
 11 32  1  0  0  0  0
 11 33  1  0  0  0  0
 12 16  2  0  0  0  0
 12 19  1  0  0  0  0
 13 20  1  0  0  0  0
 13 34  1  0  0  0  0
 13 35  1  0  0  0  0
 14 15  1  0  0  0  0
 15 36  1  0  0  0  0
 15 37  1  0  0  0  0
 16 38  1  0  0  0  0
 17 39  1  0  0  0  0
 17 40  1  0  0  0  0
 17 41  1  0  0  0  0
 18 42  1  0  0  0  0
 18 43  1  0  0  0  0
 18 44  1  0  0  0  0
 19 21  1  0  0  0  0
 19 45  1  0  0  0  0
 19 46  1  0  0  0  0
 20 21  1  0  0  0  0
 20 47  1  0  0  0  0
 20 48  1  0  0  0  0
 21 49  1  6  0  0  0
M  END
>  <PUBCHEM_COMPOUND_CID>
5881

>  <PUBCHEM_CONFORMER_RMSD>
0.6

>  <PUBCHEM_CONFORMER_DIVERSEORDER>
1

>  <PUBCHEM_MMFF94_PARTIAL_CHARGES>
13
1 -0.57
11 0.14
12 -0.28
14 0.45
15 0.06
16 -0.29
19 0.14
2 -0.68
21 0.28
37 0.15
49 0.4
6 0.06
7 0.14

>  <PUBCHEM_EFFECTIVE_ROTOR_COUNT>
1.8

>  <PUBCHEM_PHARMACOPHORE_FEATURES>
7
1 1 acceptor
1 2 acceptor
1 2 donor
5 5 6 10 14 15 rings
6 3 4 5 6 8 9 rings
6 3 4 7 11 12 16 rings
6 7 12 13 19 20 21 rings

>  <PUBCHEM_HEAVY_ATOM_COUNT>
21

>  <PUBCHEM_ATOM_DEF_STEREO_COUNT>
6

>  <PUBCHEM_ATOM_UDEF_STEREO_COUNT>
0

>  <PUBCHEM_BOND_DEF_STEREO_COUNT>
0

>  <PUBCHEM_BOND_UDEF_STEREO_COUNT>
0

>  <PUBCHEM_ISOTOPIC_ATOM_COUNT>
0

>  <PUBCHEM_COMPONENT_COUNT>
1

>  <PUBCHEM_CACTVS_TAUTO_COUNT>
2

>  <PUBCHEM_CONFORMER_ID>
000016F900000001

>  <PUBCHEM_MMFF94_ENERGY>
59.4451

>  <PUBCHEM_FEATURE_SELFOVERLAP>
35.618

>  <PUBCHEM_SHAPE_FINGERPRINT>
10366900 7 17489874851359138474
10498660 4 18334859394281494436
10967382 1 18410012121999043462
11132069 177 18411975896836688539
11471102 20 18410012135147585598
12011746 2 18412831278597657926
12236239 1 17917713487618163309
12403259 226 18410848854796014901
12403259 415 18341041961107669233
12592029 89 18187359905304954443
12788726 201 17846226513802253840
13140716 1 18049436238523547562
13224815 77 18060138738663606513
13533116 47 17989207010204847094
14178342 30 18050829298867224386
15099037 51 18408885144203005279
15196674 1 18409449154707354583
15536298 74 18342173366893131146
1601671 61 18333732420664476404
16945 1 18194113238397196358
17349148 13 18131068225476874799
18186145 218 18272090474353438889
19862831 5 18413106147566513871
200 152 18060699485778839861
20645477 70 18339643339462320006
21029758 11 18343021094716599289
21033648 29 18341600512887972785
21267235 1 18410301284803878551
21279426 13 18266458694038617719
221357 26 18411976945357536469
221490 88 18263088871335706491
23402539 116 17988638584452563967
23402655 69 18341894082302184462
23557571 272 18058456576173515423
23559900 14 18200871885218714968
2748010 2 18411140212265393054
2871803 45 18335985294283139478
296302 2 16877663473940868320
3004659 81 18260268504511148934
3286 77 17775279418413836202
335352 9 18337390409628812631
34934 24 18409444830260914822
350125 39 18410296887443234549
3545911 37 18411702105830731414
4214541 1 18408886209286433317
474 4 16444483471178595436
495365 180 17489294326668703786
5104073 3 18409449159012833177
69090 78 18341890805432301431
9709674 26 18336548334183240003

>  <PUBCHEM_SHAPE_MULTIPOLES>
420.43
9.62
2.07
1.01
2.55
0.41
0.43
-0.28
-1.62
-0.34
-0.13
-0.14
-0.31
0.19

>  <PUBCHEM_SHAPE_SELFOVERLAP>
902.487

>  <PUBCHEM_SHAPE_VOLUME>
230.9

>  <PUBCHEM_COORDINATE_TYPE>
2
5
10

>  <Energy>
75.3483

$$$$
