5839
 OpenBabel09212612393D

 54 57  0  0  1  0  0  0  0  0999 V2000
   -0.0693    1.5029   -1.8626 O   0  0  0  0  0  0  0  0  0  0  0  0
   -1.9371   -1.1076   -2.1133 O   0  0  0  0  0  0  0  0  0  0  0  0
   -5.1281   -0.3529   -0.2173 O   0  0  0  0  0  0  0  0  0  0  0  0
    5.8121    0.8206    1.7914 O   0  0  0  0  0  0  0  0  0  0  0  0
   -6.0062    2.1130    0.5319 O   0  0  0  0  0  0  0  0  0  0  0  0
   -0.8722   -1.0712    0.5925 C   0  0  1  0  0  0  0  0  0  0  0  0
    0.4360   -1.0964   -0.2093 C   0  0  1  0  0  0  0  0  0  0  0  0
   -1.8565   -0.0058    0.0878 C   0  0  2  0  0  0  0  0  0  0  0  0
    1.1237    0.3106   -0.0803 C   0  0  1  0  0  0  0  0  0  0  0  0
    2.5316    0.3280   -0.7846 C   0  0  2  0  0  0  0  0  0  0  0  0
    0.1559    1.4697   -0.4627 C   0  0  2  0  0  0  0  0  0  0  0  0
   -1.2102    1.3803    0.2464 C   0  0  0  0  0  0  0  0  0  0  0  0
   -3.0521   -0.2812    1.0241 C   0  0  2  0  0  0  0  0  0  0  0  0
   -1.7193   -2.3338    0.6877 C   0  0  0  0  0  0  0  0  0  0  0  0
    1.3435   -2.2444    0.2675 C   0  0  0  0  0  0  0  0  0  0  0  0
   -3.0885   -1.8201    1.1583 C   0  0  0  0  0  0  0  0  0  0  0  0
    3.3204   -0.8238   -0.1432 C   0  0  0  0  0  0  0  0  0  0  0  0
    2.7380   -2.1985   -0.3563 C   0  0  0  0  0  0  0  0  0  0  0  0
    3.2956    1.6689   -0.5890 C   0  0  0  0  0  0  0  0  0  0  0  0
   -2.2946   -0.1929   -1.3790 C   0  0  0  0  0  0  0  0  0  0  0  0
    2.4598    0.1132   -2.3172 C   0  0  0  0  0  0  0  0  0  0  0  0
   -4.3785    0.2766    0.5379 C   0  0  0  0  0  0  0  0  0  0  0  0
    3.8770    1.8436    0.8051 C   0  0  0  0  0  0  0  0  0  0  0  0
    4.3781   -0.6592    0.6691 C   0  0  0  0  0  0  0  0  0  0  0  0
    4.7986    0.6910    1.1103 C   0  0  0  0  0  0  0  0  0  0  0  0
   -4.7551    1.6768    1.0217 C   0  0  0  0  0  0  0  0  0  0  0  0
    0.7812    1.5592   -2.3257 H   0  0  0  0  0  0  0  0  0  0  0  0
   -6.1930    3.0031    0.8692 H   0  0  0  0  0  0  0  0  0  0  0  0
   -0.4503   -0.8856    1.5581 H   0  0  0  0  0  0  0  0  0  0  0  0
    0.2382   -1.2842   -1.2440 H   0  0  0  0  0  0  0  0  0  0  0  0
    1.3426    0.4970    0.9504 H   0  0  0  0  0  0  0  0  0  0  0  0
    0.6432    2.3655   -0.1387 H   0  0  0  0  0  0  0  0  0  0  0  0
   -1.0712    1.5786    1.2886 H   0  0  0  0  0  0  0  0  0  0  0  0
   -1.8617    2.1002   -0.2032 H   0  0  0  0  0  0  0  0  0  0  0  0
   -2.9160    0.2201    1.9596 H   0  0  0  0  0  0  0  0  0  0  0  0
   -1.3044   -3.0188    1.3973 H   0  0  0  0  0  0  0  0  0  0  0  0
   -1.7728   -2.8676   -0.2381 H   0  0  0  0  0  0  0  0  0  0  0  0
    0.8832   -3.1745    0.0065 H   0  0  0  0  0  0  0  0  0  0  0  0
    1.4617   -2.1419    1.3260 H   0  0  0  0  0  0  0  0  0  0  0  0
   -3.8658   -2.2259    0.5451 H   0  0  0  0  0  0  0  0  0  0  0  0
   -3.2854   -2.1150    2.1678 H   0  0  0  0  0  0  0  0  0  0  0  0
    2.6699   -2.4017   -1.4046 H   0  0  0  0  0  0  0  0  0  0  0  0
    3.3656   -2.9343    0.1015 H   0  0  0  0  0  0  0  0  0  0  0  0
    2.6168    2.4747   -0.7753 H   0  0  0  0  0  0  0  0  0  0  0  0
    4.1189    1.6621   -1.2724 H   0  0  0  0  0  0  0  0  0  0  0  0
   -2.9406    0.5082   -1.7743 H   0  0  0  0  0  0  0  0  0  0  0  0
    1.9421   -0.7998   -2.5256 H   0  0  0  0  0  0  0  0  0  0  0  0
    3.4510    0.0604   -2.7168 H   0  0  0  0  0  0  0  0  0  0  0  0
    1.9367    0.9307   -2.7678 H   0  0  0  0  0  0  0  0  0  0  0  0
    3.0837    1.8662    1.5227 H   0  0  0  0  0  0  0  0  0  0  0  0
    4.4247    2.7616    0.8519 H   0  0  0  0  0  0  0  0  0  0  0  0
    4.9055   -1.4860    0.9905 H   0  0  0  0  0  0  0  0  0  0  0  0
   -4.7914    1.6696    2.0910 H   0  0  0  0  0  0  0  0  0  0  0  0
   -4.0134    2.3533    0.6513 H   0  0  0  0  0  0  0  0  0  0  0  0
  1 11  1  0  0  0  0
  1 27  1  0  0  0  0
  2 20  2  0  0  0  0
  3 22  2  0  0  0  0
  4 25  2  0  0  0  0
  5 26  1  0  0  0  0
  5 28  1  0  0  0  0
  6  7  1  0  0  0  0
  6  8  1  0  0  0  0
  6 14  1  0  0  0  0
  6 29  1  1  0  0  0
  7  9  1  0  0  0  0
  7 15  1  0  0  0  0
  7 30  1  6  0  0  0
  8 12  1  0  0  0  0
  8 13  1  0  0  0  0
  8 20  1  6  0  0  0
  9 10  1  0  0  0  0
  9 11  1  0  0  0  0
  9 31  1  1  0  0  0
 10 17  1  0  0  0  0
 10 19  1  0  0  0  0
 10 21  1  6  0  0  0
 11 12  1  0  0  0  0
 11 32  1  1  0  0  0
 12 33  1  0  0  0  0
 12 34  1  0  0  0  0
 13 16  1  0  0  0  0
 13 22  1  0  0  0  0
 13 35  1  1  0  0  0
 14 16  1  0  0  0  0
 14 36  1  0  0  0  0
 14 37  1  0  0  0  0
 15 18  1  0  0  0  0
 15 38  1  0  0  0  0
 15 39  1  0  0  0  0
 16 40  1  0  0  0  0
 16 41  1  0  0  0  0
 17 18  1  0  0  0  0
 17 24  2  0  0  0  0
 18 42  1  0  0  0  0
 18 43  1  0  0  0  0
 19 23  1  0  0  0  0
 19 44  1  0  0  0  0
 19 45  1  0  0  0  0
 20 46  1  0  0  0  0
 21 47  1  0  0  0  0
 21 48  1  0  0  0  0
 21 49  1  0  0  0  0
 22 26  1  0  0  0  0
 23 25  1  0  0  0  0
 23 50  1  0  0  0  0
 23 51  1  0  0  0  0
 24 25  1  0  0  0  0
 24 52  1  0  0  0  0
 26 53  1  0  0  0  0
 26 54  1  0  0  0  0
M  END
>  <PUBCHEM_COMPOUND_CID>
5839

>  <PUBCHEM_CONFORMER_RMSD>
0.8

>  <PUBCHEM_CONFORMER_DIVERSEORDER>
1
3
2

>  <PUBCHEM_MMFF94_PARTIAL_CHARGES>
21
1 -0.68
10 0.14
11 0.28
13 0.06
17 -0.28
18 0.14
2 -0.57
20 0.45
22 0.45
23 0.06
24 -0.14
25 0.49
26 0.34
3 -0.57
4 -0.57
44 0.06
5 -0.68
50 0.15
51 0.4
54 0.4
8 0.06

>  <PUBCHEM_EFFECTIVE_ROTOR_COUNT>
4.8

>  <PUBCHEM_PHARMACOPHORE_FEATURES>
11
1 1 acceptor
1 1 donor
1 2 acceptor
1 3 acceptor
1 4 acceptor
1 5 acceptor
1 5 donor
5 6 8 13 14 16 rings
6 10 17 19 23 24 25 rings
6 6 7 8 9 11 12 rings
6 7 9 10 15 17 18 rings

>  <PUBCHEM_HEAVY_ATOM_COUNT>
26

>  <PUBCHEM_ATOM_DEF_STEREO_COUNT>
7

>  <PUBCHEM_ATOM_UDEF_STEREO_COUNT>
0

>  <PUBCHEM_BOND_DEF_STEREO_COUNT>
0

>  <PUBCHEM_BOND_UDEF_STEREO_COUNT>
0

>  <PUBCHEM_ISOTOPIC_ATOM_COUNT>
0

>  <PUBCHEM_COMPONENT_COUNT>
1

>  <PUBCHEM_CACTVS_TAUTO_COUNT>
20

>  <PUBCHEM_CONFORMER_ID>
000016CF00000001

>  <PUBCHEM_MMFF94_ENERGY>
79.6454

>  <PUBCHEM_FEATURE_SELFOVERLAP>
55.947

>  <PUBCHEM_SHAPE_FINGERPRINT>
10863032 1 18336560377593226387
10906281 52 17968957360933632928
11089746 13 18060698368644452169
11132069 177 18260270767109626891
11370993 70 18411984671476259354
11796584 16 14345792734081808545
11961588 58 14189282786313097520
12236239 1 17988638576079121407
12403814 3 17023184959354272215
12422481 6 18113613448099828088
12633257 1 17385445452881902539
13009979 54 13262672591725724598
13140716 1 18188211013172530634
13224815 77 18261678172511488950
13583140 156 17774441706291124467
14178342 30 18263085568453387746
14223421 5 18336263458040615918
14251764 30 13768220406131111721
14790565 3 17757289428204498060
15142383 8 15285629967715544077
15163728 17 16055776239267198721
15196674 1 18335147517646039627
15238133 3 18334586715134191764
15375358 24 18341055189369135371
15840311 113 18199194975932354641
16945 1 18337122223291413030
17349148 13 18186793707986796950
17980427 23 18187924057981029004
1813 80 16443066093210434998
19784866 240 13912597217913043944
20511986 3 18271512122963740267
20715895 44 18335701577402416593
21304253 335 18338244760676881669
21421861 104 17604140425039922898
21452121 103 18341331111179998802
21756936 100 17769931600627511968
21859007 373 17387116577876723877
22182313 1 17751072518571222351
23227448 37 17489019478314788697
23503953 91 18114187444661512520
23559900 14 18268450000260357694
296302 2 17132115753381006798
335352 9 18334865960996456686
34797466 226 17132119022452603201
34934 24 18201718448778575689
350125 39 18335426734155585900
3680242 22 18113898208837232162
394222 165 16809005707959914868
4340502 62 18336835212713670827
46194498 28 8070023385540797194
474 4 18272650203408526960
495365 180 18060138704435964306
5104073 3 17749961075424396201
58807428 26 18113333102958298026
59755656 215 18340211804501746454
633830 44 18271247226671731228
6786 2 13158759324053554174
7064713 232 18408604798802635050

>  <PUBCHEM_SHAPE_MULTIPOLES>
505.72
10.66
2.31
1.55
2.81
0.45
-0.65
-4.33
4.64
0.35
0.31
-0.7
-0.19
0.19

>  <PUBCHEM_SHAPE_SELFOVERLAP>
1091.275

>  <PUBCHEM_SHAPE_VOLUME>
273.9

>  <PUBCHEM_COORDINATE_TYPE>
2
5
10

>  <Energy>
93.8055

$$$$
