4169
 OpenBabel09212612403D

 41 41  0  0  1  0  0  0  0  0999 V2000
    0.4470    4.0302   -1.3039 Cl  0  0  0  0  0  0  0  0  0  0  0  0
   -3.8938   -0.9495    0.7696 O   0  0  0  0  0  0  0  0  0  0  0  0
   -1.4709    2.3880    0.1802 O   0  0  0  0  0  0  0  0  0  0  0  0
   -0.4118    0.3435    0.1275 N   0  0  0  0  0  0  0  0  0  0  0  0
   -1.5095   -0.3541    0.8587 C   0  0  1  0  0  0  0  0  0  0  0  0
    0.7636   -0.3867   -0.1844 C   0  0  0  0  0  0  0  0  0  0  0  0
    1.8375   -0.4204    0.7307 C   0  0  0  0  0  0  0  0  0  0  0  0
   -2.8329   -0.3056    0.0584 C   0  0  0  0  0  0  0  0  0  0  0  0
    0.8354   -1.0532   -1.4301 C   0  0  0  0  0  0  0  0  0  0  0  0
   -1.1986   -1.8179    1.2449 C   0  0  0  0  0  0  0  0  0  0  0  0
    1.7815    0.2799    2.0807 C   0  0  0  0  0  0  0  0  0  0  0  0
   -0.4965    1.7172   -0.1629 C   0  0  0  0  0  0  0  0  0  0  0  0
    2.9657   -1.1845    0.3959 C   0  0  0  0  0  0  0  0  0  0  0  0
    1.9814   -1.7930   -1.7280 C   0  0  0  0  0  0  0  0  0  0  0  0
   -0.3064   -1.0545   -2.4097 C   0  0  0  0  0  0  0  0  0  0  0  0
    3.0398   -1.8568   -0.8237 C   0  0  0  0  0  0  0  0  0  0  0  0
    3.0354    1.0782    2.4094 C   0  0  0  0  0  0  0  0  0  0  0  0
    0.6812    2.3048   -0.9454 C   0  0  0  0  0  0  0  0  0  0  0  0
   -5.0978   -0.9247    0.0127 C   0  0  0  0  0  0  0  0  0  0  0  0
   -1.6083    0.1885    1.7756 H   0  0  0  0  0  0  0  0  0  0  0  0
   -3.0987    0.7164   -0.1140 H   0  0  0  0  0  0  0  0  0  0  0  0
   -2.6863   -0.8200   -0.8683 H   0  0  0  0  0  0  0  0  0  0  0  0
   -1.0900   -2.4055    0.3574 H   0  0  0  0  0  0  0  0  0  0  0  0
   -2.0005   -2.2089    1.8357 H   0  0  0  0  0  0  0  0  0  0  0  0
   -0.2901   -1.8526    1.8091 H   0  0  0  0  0  0  0  0  0  0  0  0
    1.6444   -0.4614    2.8401 H   0  0  0  0  0  0  0  0  0  0  0  0
    0.9702    0.9762    2.0379 H   0  0  0  0  0  0  0  0  0  0  0  0
    3.7516   -1.2499    1.0615 H   0  0  0  0  0  0  0  0  0  0  0  0
    2.0452   -2.2973   -2.6261 H   0  0  0  0  0  0  0  0  0  0  0  0
   -1.1001   -0.4436   -2.0333 H   0  0  0  0  0  0  0  0  0  0  0  0
   -0.6597   -2.0555   -2.5442 H   0  0  0  0  0  0  0  0  0  0  0  0
    0.0287   -0.6654   -3.3485 H   0  0  0  0  0  0  0  0  0  0  0  0
    3.8828   -2.4043   -1.0577 H   0  0  0  0  0  0  0  0  0  0  0  0
    3.8753    0.4174    2.4622 H   0  0  0  0  0  0  0  0  0  0  0  0
    2.9086    1.5697    3.3514 H   0  0  0  0  0  0  0  0  0  0  0  0
    3.2036    1.8087    1.6458 H   0  0  0  0  0  0  0  0  0  0  0  0
    1.5730    2.1904   -0.3653 H   0  0  0  0  0  0  0  0  0  0  0  0
    0.7548    1.7808   -1.8753 H   0  0  0  0  0  0  0  0  0  0  0  0
   -5.8755   -1.4110    0.5637 H   0  0  0  0  0  0  0  0  0  0  0  0
   -4.9460   -1.4345   -0.9157 H   0  0  0  0  0  0  0  0  0  0  0  0
   -5.3776    0.0901   -0.1792 H   0  0  0  0  0  0  0  0  0  0  0  0
  1 18  1  0  0  0  0
  2  8  1  0  0  0  0
  2 19  1  0  0  0  0
  3 12  2  0  0  0  0
  4  5  1  0  0  0  0
  4  6  1  0  0  0  0
  4 12  1  0  0  0  0
  5  8  1  0  0  0  0
  5 10  1  0  0  0  0
  5 20  1  1  0  0  0
  6  7  1  0  0  0  0
  6  9  2  0  0  0  0
  7 11  1  0  0  0  0
  7 13  2  0  0  0  0
  8 21  1  0  0  0  0
  8 22  1  0  0  0  0
  9 14  1  0  0  0  0
  9 15  1  0  0  0  0
 10 23  1  0  0  0  0
 10 24  1  0  0  0  0
 10 25  1  0  0  0  0
 11 17  1  0  0  0  0
 11 26  1  0  0  0  0
 11 27  1  0  0  0  0
 12 18  1  0  0  0  0
 13 16  1  0  0  0  0
 13 28  1  0  0  0  0
 14 16  2  0  0  0  0
 14 29  1  0  0  0  0
 15 30  1  0  0  0  0
 15 31  1  0  0  0  0
 15 32  1  0  0  0  0
 16 33  1  0  0  0  0
 17 34  1  0  0  0  0
 17 35  1  0  0  0  0
 17 36  1  0  0  0  0
 18 37  1  0  0  0  0
 18 38  1  0  0  0  0
 19 39  1  0  0  0  0
 19 40  1  0  0  0  0
 19 41  1  0  0  0  0
M  END
>  <PUBCHEM_COMPOUND_CID>
4169

>  <PUBCHEM_CONFORMER_RMSD>
0.8

>  <PUBCHEM_CONFORMER_DIVERSEORDER>
3
25
50
8
68
57
27
63
41
66
21
22
48
42
43
40
70
31
56
19
5
49
39
54
12
47
64
16
60
36
35
15
30
32
14
6
67
7
62
26
44
55
9
65
51
29
46
33
37
53
38
69
24
20
59
73
4
13
10
28
23
2
11
58
74
61
17
72
18
34
71
52
45
1

>  <PUBCHEM_MMFF94_PARTIAL_CHARGES>
20
1 -0.29
11 0.14
12 0.57
13 -0.15
14 -0.15
15 0.14
16 -0.15
18 0.35
19 0.28
2 -0.56
28 0.15
29 0.15
3 -0.57
33 0.15
4 -0.48
5 0.3
6 0.12
7 -0.14
8 0.28
9 -0.14

>  <PUBCHEM_EFFECTIVE_ROTOR_COUNT>
7

>  <PUBCHEM_PHARMACOPHORE_FEATURES>
4
1 17 hydrophobe
1 2 acceptor
1 3 acceptor
6 6 7 9 13 14 16 rings

>  <PUBCHEM_HEAVY_ATOM_COUNT>
19

>  <PUBCHEM_ATOM_DEF_STEREO_COUNT>
0

>  <PUBCHEM_ATOM_UDEF_STEREO_COUNT>
1

>  <PUBCHEM_BOND_DEF_STEREO_COUNT>
0

>  <PUBCHEM_BOND_UDEF_STEREO_COUNT>
0

>  <PUBCHEM_ISOTOPIC_ATOM_COUNT>
0

>  <PUBCHEM_COMPONENT_COUNT>
1

>  <PUBCHEM_CACTVS_TAUTO_COUNT>
1

>  <PUBCHEM_CONFORMER_ID>
0000104900000003

>  <PUBCHEM_MMFF94_ENERGY>
81.7231

>  <PUBCHEM_FEATURE_SELFOVERLAP>
20.297

>  <PUBCHEM_SHAPE_FINGERPRINT>
10165383 225 17702656817286594784
11582403 64 16323358813262124240
12617007 42 18337404789664518567
13583140 156 17908393915577094874
13898156 1 17098078034713035268
14142880 1 16695505342774427064
14817 1 15297209281371672884
15163728 17 16157115159187279653
15501101 241 17917999351566277355
15881359 60 18124563557341388260
16752209 62 17822010853080618491
16945 1 17560789996933960838
17357779 13 18270954636171971957
20233049 118 17675927594851609771
20344682 1 18272656731600736622
20600515 1 18261382373549899353
20645476 183 16308538933770096116
22112679 90 17900856801469338821
229495 10 16987980735562724785
23402539 116 18336831870781137199
23419403 2 18058441024033366381
23557571 272 18337108969032990928
23559900 14 18262235504647875334
2748010 2 18339913810310688541
298252 57 17331704824920150820
3052486 1 17970068842630410449
31174 14 17775281634337704266
3286 77 17632298930137349458
394222 165 17684372033015979145
4175511 376 17973469846273391261
6442390 28 17114677215698000993
7364860 26 18192445275115997149
77492 1 14116651143804599226
81228 2 18264219010665505337
81539 233 17755874356643993973
9841814 1 18040718108249103473
9999458 23 17346319349124810450

>  <PUBCHEM_SHAPE_MULTIPOLES>
376.16
5.44
3.1
2.08
6.7
4.09
-0.08
-3.07
-1.84
-0.75
1.61
-1.52
-0.14
0.99

>  <PUBCHEM_SHAPE_SELFOVERLAP>
754.965

>  <PUBCHEM_SHAPE_VOLUME>
224.5

>  <PUBCHEM_COORDINATE_TYPE>
2
5
10

>  <Energy>
82.6522

$$$$
