66494
 OpenBabel09212612403D

 40 42  0  0  0  0  0  0  0  0999 V2000
    2.8921   -4.5708   -0.6759 O   0  0  0  0  0  0  0  0  0  0  0  0
   -5.7262   -0.6690    0.0228 O   0  0  0  0  0  0  0  0  0  0  0  0
    3.2059    1.0428    1.2458 O   0  0  0  0  0  0  0  0  0  0  0  0
    1.7218    2.0242    2.6270 O   0  0  0  0  0  0  0  0  0  0  0  0
   -0.1012    0.1529    0.4199 C   0  0  0  0  0  0  0  0  0  0  0  0
    0.3874    1.4291   -0.2773 C   0  0  0  0  0  0  0  0  0  0  0  0
    0.7366   -1.0931    0.1152 C   0  0  0  0  0  0  0  0  0  0  0  0
   -1.6122   -0.0861    0.3025 C   0  0  0  0  0  0  0  0  0  0  0  0
    1.4635    2.1752    0.2477 C   0  0  0  0  0  0  0  0  0  0  0  0
   -0.1758    1.8715   -1.4895 C   0  0  0  0  0  0  0  0  0  0  0  0
    0.8856   -2.0780    1.1104 C   0  0  0  0  0  0  0  0  0  0  0  0
   -2.4804    0.5467    1.2128 C   0  0  0  0  0  0  0  0  0  0  0  0
    1.3260   -1.3208   -1.1411 C   0  0  0  0  0  0  0  0  0  0  0  0
   -2.1698   -0.8982   -0.6996 C   0  0  0  0  0  0  0  0  0  0  0  0
    1.9398    3.3260   -0.3941 C   0  0  0  0  0  0  0  0  0  0  0  0
    0.3026    3.0171   -2.1343 C   0  0  0  0  0  0  0  0  0  0  0  0
    1.6092   -3.2472    0.8631 C   0  0  0  0  0  0  0  0  0  0  0  0
   -3.8623    0.3575    1.1344 C   0  0  0  0  0  0  0  0  0  0  0  0
    2.0462   -2.4905   -1.3883 C   0  0  0  0  0  0  0  0  0  0  0  0
   -3.5493   -1.0809   -0.7805 C   0  0  0  0  0  0  0  0  0  0  0  0
    1.3553    3.7445   -1.5870 C   0  0  0  0  0  0  0  0  0  0  0  0
    2.1836   -3.4421   -0.3877 C   0  0  0  0  0  0  0  0  0  0  0  0
   -4.3843   -0.4567    0.1366 C   0  0  0  0  0  0  0  0  0  0  0  0
    2.1171    1.7824    1.5049 C   0  0  0  0  0  0  0  0  0  0  0  0
    3.0039   -5.2333   -0.0229 H   0  0  0  0  0  0  0  0  0  0  0  0
   -6.3176   -0.2628    0.6254 H   0  0  0  0  0  0  0  0  0  0  0  0
    3.4664    0.8872    0.3593 H   0  0  0  0  0  0  0  0  0  0  0  0
    0.0688    0.3481    1.4581 H   0  0  0  0  0  0  0  0  0  0  0  0
   -0.9552    1.3414   -1.9098 H   0  0  0  0  0  0  0  0  0  0  0  0
    0.4537   -1.9340    2.0365 H   0  0  0  0  0  0  0  0  0  0  0  0
   -2.0908    1.1580    1.9473 H   0  0  0  0  0  0  0  0  0  0  0  0
    1.2249   -0.6158   -1.8880 H   0  0  0  0  0  0  0  0  0  0  0  0
   -1.5519   -1.3638   -1.3825 H   0  0  0  0  0  0  0  0  0  0  0  0
    2.7211    3.8616    0.0156 H   0  0  0  0  0  0  0  0  0  0  0  0
   -0.1275    3.3246   -3.0206 H   0  0  0  0  0  0  0  0  0  0  0  0
    1.7162   -3.9596    1.6021 H   0  0  0  0  0  0  0  0  0  0  0  0
   -4.4900    0.8184    1.8116 H   0  0  0  0  0  0  0  0  0  0  0  0
    2.4758   -2.6474   -2.3134 H   0  0  0  0  0  0  0  0  0  0  0  0
   -3.9491   -1.6790   -1.5204 H   0  0  0  0  0  0  0  0  0  0  0  0
    1.7018    4.5917   -2.0638 H   0  0  0  0  0  0  0  0  0  0  0  0
  1 22  1  0  0  0  0
  1 25  1  0  0  0  0
  2 23  1  0  0  0  0
  2 26  1  0  0  0  0
  3 24  1  0  0  0  0
  3 27  1  0  0  0  0
  4 24  2  0  0  0  0
  5  6  1  0  0  0  0
  5  7  1  0  0  0  0
  5  8  1  0  0  0  0
  5 28  1  0  0  0  0
  6  9  1  0  0  0  0
  6 10  2  0  0  0  0
  7 11  2  0  0  0  0
  7 13  1  0  0  0  0
  8 12  2  0  0  0  0
  8 14  1  0  0  0  0
  9 15  2  0  0  0  0
  9 24  1  0  0  0  0
 10 16  1  0  0  0  0
 10 29  1  0  0  0  0
 11 17  1  0  0  0  0
 11 30  1  0  0  0  0
 12 18  1  0  0  0  0
 12 31  1  0  0  0  0
 13 19  2  0  0  0  0
 13 32  1  0  0  0  0
 14 20  2  0  0  0  0
 14 33  1  0  0  0  0
 15 21  1  0  0  0  0
 15 34  1  0  0  0  0
 16 21  2  0  0  0  0
 16 35  1  0  0  0  0
 17 22  2  0  0  0  0
 17 36  1  0  0  0  0
 18 23  2  0  0  0  0
 18 37  1  0  0  0  0
 19 22  1  0  0  0  0
 19 38  1  0  0  0  0
 20 23  1  0  0  0  0
 20 39  1  0  0  0  0
 21 40  1  0  0  0  0
M  END
>  <PUBCHEM_COMPOUND_CID>
66494

>  <PUBCHEM_CONFORMER_RMSD>
0.8

>  <PUBCHEM_CONFORMER_DIVERSEORDER>
1
3
2
5
4
6

>  <PUBCHEM_MMFF94_PARTIAL_CHARGES>
39
1 -0.53
10 -0.15
11 -0.15
12 -0.15
13 -0.15
14 -0.15
15 -0.15
16 -0.15
17 -0.15
18 -0.15
19 -0.15
2 -0.53
20 -0.15
21 -0.15
22 0.08
23 0.08
24 0.63
26 0.15
27 0.15
28 0.15
29 0.15
3 -0.65
30 0.15
31 0.15
32 0.15
33 0.15
34 0.15
35 0.15
36 0.15
37 0.15
38 0.45
39 0.45
4 -0.57
40 0.5
5 0.43
6 -0.14
7 -0.14
8 -0.14
9 0.09

>  <PUBCHEM_EFFECTIVE_ROTOR_COUNT>
4

>  <PUBCHEM_PHARMACOPHORE_FEATURES>
8
1 1 donor
1 2 donor
1 3 acceptor
1 4 acceptor
3 3 4 24 anion
6 6 9 10 15 16 21 rings
6 7 11 13 17 19 22 rings
6 8 12 14 18 20 23 rings

>  <PUBCHEM_HEAVY_ATOM_COUNT>
24

>  <PUBCHEM_ATOM_DEF_STEREO_COUNT>
0

>  <PUBCHEM_ATOM_UDEF_STEREO_COUNT>
0

>  <PUBCHEM_BOND_DEF_STEREO_COUNT>
0

>  <PUBCHEM_BOND_UDEF_STEREO_COUNT>
0

>  <PUBCHEM_ISOTOPIC_ATOM_COUNT>
0

>  <PUBCHEM_COMPONENT_COUNT>
1

>  <PUBCHEM_CACTVS_TAUTO_COUNT>
3

>  <PUBCHEM_CONFORMER_ID>
000103BE00000001

>  <PUBCHEM_MMFF94_ENERGY>
84.6512

>  <PUBCHEM_FEATURE_SELFOVERLAP>
40.654

>  <PUBCHEM_SHAPE_FINGERPRINT>
11069576 57 17985238985069296015
11578080 2 18119243969921063212
11582403 64 15768069436381710880
11640471 11 17250044100757572189
12293681 25 17904451057661785671
12553582 1 18047196250319085659
12643181 29 17903943372182386204
12714826 92 17687751536374461210
12788726 201 17249776447248968027
13140716 1 18193835074887633491
133893 2 18267043737715227057
13681431 1 18337684022278072859
14787075 74 18264214612983575506
14863182 85 18197216060606386651
15906896 17 17181937077751703018
16752209 62 17402893821941124102
17492 54 17970093190947432500
17980427 26 17344320458487250448
1813 80 18125457319062425359
20567600 347 18056198222455754215
20600515 1 17625276207789758693
20645476 183 17614561866351017869
20739085 24 18335691771891645224
21033648 29 13987151927606797301
22182313 1 18189598481040968277
2255824 54 18338247036893555959
22907989 373 16752145713495418485
23419403 2 18054770802717243816
23559900 14 18334863814362193107
23598288 3 16890338356286995387
2748010 2 18119227494420857573
283562 15 17684382658707150866
3060560 45 18190182467327571316
3091708 16 9287213487441767751
3380486 145 17625219115032092418
352729 6 17976260458630450779
376196 1 16053770978992711201
4409770 3 17255682993527166807
474 4 18264771133048356785
58260988 114 13395202170071841510
5845 1 14824332428219537966
7364860 26 18131353011789254083
81228 2 17403480480119385123

>  <PUBCHEM_SHAPE_MULTIPOLES>
470.43
5.94
5.08
1.82
10.74
2.05
0.35
1.52
0.9
-6.92
-1.91
-0.96
-1.11
0.4

>  <PUBCHEM_SHAPE_SELFOVERLAP>
1040.854

>  <PUBCHEM_SHAPE_VOLUME>
251.4

>  <PUBCHEM_COORDINATE_TYPE>
2
5
10

>  <Energy>
57.2931

$$$$
