80152
 OpenBabel09212612393D

 30 31  0  0  0  0  0  0  0  0999 V2000
    5.9811   -0.0473    0.3261 O   0  0  0  0  0  0  0  0  0  0  0  0
   -5.9737   -0.0473   -0.3656 O   0  0  0  0  0  0  0  0  0  0  0  0
    0.3976    0.0163   -0.6354 C   0  0  0  0  0  0  0  0  0  0  0  0
   -0.4030    0.0168    0.6695 C   0  0  0  0  0  0  0  0  0  0  0  0
    1.8857    0.0118   -0.3835 C   0  0  0  0  0  0  0  0  0  0  0  0
   -1.8899    0.0124    0.4090 C   0  0  0  0  0  0  0  0  0  0  0  0
    2.5888    1.2181   -0.2504 C   0  0  0  0  0  0  0  0  0  0  0  0
   -2.5912    1.2184    0.2652 C   0  0  0  0  0  0  0  0  0  0  0  0
    2.5808   -1.1992   -0.2592 C   0  0  0  0  0  0  0  0  0  0  0  0
   -2.5837   -1.1988    0.2768 C   0  0  0  0  0  0  0  0  0  0  0  0
    3.9654    1.2148   -0.0125 C   0  0  0  0  0  0  0  0  0  0  0  0
   -3.9638    1.2151    0.0062 C   0  0  0  0  0  0  0  0  0  0  0  0
    3.9561   -1.2025   -0.0212 C   0  0  0  0  0  0  0  0  0  0  0  0
   -3.9550   -1.2021    0.0178 C   0  0  0  0  0  0  0  0  0  0  0  0
    4.6377    0.0022    0.0980 C   0  0  0  0  0  0  0  0  0  0  0  0
   -4.6344    0.0024   -0.1141 C   0  0  0  0  0  0  0  0  0  0  0  0
    6.4714    0.7466    0.4117 H   0  0  0  0  0  0  0  0  0  0  0  0
   -6.4624    0.7465   -0.4602 H   0  0  0  0  0  0  0  0  0  0  0  0
    0.1445    0.8915   -1.1967 H   0  0  0  0  0  0  0  0  0  0  0  0
    0.1502   -0.8736   -1.1756 H   0  0  0  0  0  0  0  0  0  0  0  0
   -0.1514    0.8922    1.2310 H   0  0  0  0  0  0  0  0  0  0  0  0
   -0.1559   -0.8704    1.2142 H   0  0  0  0  0  0  0  0  0  0  0  0
    2.0851    2.1154   -0.3290 H   0  0  0  0  0  0  0  0  0  0  0  0
   -2.0889    2.1158    0.3515 H   0  0  0  0  0  0  0  0  0  0  0  0
    2.0727   -2.0934   -0.3440 H   0  0  0  0  0  0  0  0  0  0  0  0
   -2.0773   -2.0930    0.3715 H   0  0  0  0  0  0  0  0  0  0  0  0
    4.4794    2.1048    0.0806 H   0  0  0  0  0  0  0  0  0  0  0  0
   -4.4763    2.1051   -0.0951 H   0  0  0  0  0  0  0  0  0  0  0  0
    4.4647   -2.0962    0.0657 H   0  0  0  0  0  0  0  0  0  0  0  0
   -4.4624   -2.0959   -0.0754 H   0  0  0  0  0  0  0  0  0  0  0  0
  1 15  1  0  0  0  0
  1 17  1  0  0  0  0
  2 16  1  0  0  0  0
  2 18  1  0  0  0  0
  3  4  1  0  0  0  0
  3  5  1  0  0  0  0
  3 19  1  0  0  0  0
  3 20  1  0  0  0  0
  4  6  1  0  0  0  0
  4 21  1  0  0  0  0
  4 22  1  0  0  0  0
  5  7  2  0  0  0  0
  5  9  1  0  0  0  0
  6  8  2  0  0  0  0
  6 10  1  0  0  0  0
  7 11  1  0  0  0  0
  7 23  1  0  0  0  0
  8 12  1  0  0  0  0
  8 24  1  0  0  0  0
  9 13  2  0  0  0  0
  9 25  1  0  0  0  0
 10 14  2  0  0  0  0
 10 26  1  0  0  0  0
 11 15  2  0  0  0  0
 11 27  1  0  0  0  0
 12 16  2  0  0  0  0
 12 28  1  0  0  0  0
 13 15  1  0  0  0  0
 13 29  1  0  0  0  0
 14 16  1  0  0  0  0
 14 30  1  0  0  0  0
M  END
>  <PUBCHEM_COMPOUND_CID>
80152

>  <PUBCHEM_CONFORMER_RMSD>
0.6

>  <PUBCHEM_CONFORMER_DIVERSEORDER>
1
5
2
4
3
6

>  <PUBCHEM_MMFF94_PARTIAL_CHARGES>
26
1 -0.53
10 -0.15
11 -0.15
12 -0.15
13 -0.15
14 -0.15
15 0.08
16 0.08
2 -0.53
21 0.15
22 0.15
23 0.15
24 0.15
25 0.15
26 0.15
27 0.15
28 0.15
29 0.45
3 0.14
30 0.45
4 0.14
5 -0.14
6 -0.14
7 -0.15
8 -0.15
9 -0.15

>  <PUBCHEM_EFFECTIVE_ROTOR_COUNT>
3

>  <PUBCHEM_PHARMACOPHORE_FEATURES>
4
1 1 donor
1 2 donor
6 5 7 9 11 13 15 rings
6 6 8 10 12 14 16 rings

>  <PUBCHEM_HEAVY_ATOM_COUNT>
16

>  <PUBCHEM_ATOM_DEF_STEREO_COUNT>
0

>  <PUBCHEM_ATOM_UDEF_STEREO_COUNT>
0

>  <PUBCHEM_BOND_DEF_STEREO_COUNT>
0

>  <PUBCHEM_BOND_UDEF_STEREO_COUNT>
0

>  <PUBCHEM_ISOTOPIC_ATOM_COUNT>
0

>  <PUBCHEM_COMPONENT_COUNT>
1

>  <PUBCHEM_CACTVS_TAUTO_COUNT>
3

>  <PUBCHEM_CONFORMER_ID>
0001391800000001

>  <PUBCHEM_MMFF94_ENERGY>
39.7521

>  <PUBCHEM_FEATURE_SELFOVERLAP>
20.298

>  <PUBCHEM_SHAPE_FINGERPRINT>
11315181 36 18410015450514340976
11370993 70 18410575088963977083
11401426 45 18113617889222463139
12107183 9 17689998933909537056
12236239 1 17846498123692304414
12507557 5 18202001044805372736
12815109 37 18410573989446450918
128620 24 15841555162658463444
13167823 11 18410855460133826310
13533116 47 18341610369674444978
14123238 8 18343865510935178429
15375358 24 18410298007759707866
17834072 33 18410856585747249100
17834076 25 18410573989451712686
18186145 218 17022900189820971721
19489759 90 18411135831541033081
200 152 18059855060648247825
20279233 1 18410020930829287442
20300324 65 18344145895702391441
20645477 56 18334014982536834045
20645477 70 18342460283878703998
21267235 1 18410866459539582243
23402539 116 18410569604838703999
23402655 69 18411984658923302726
23557571 272 18201443540738788933
23559900 14 18411696629510253816
26918003 58 18409730677039540282
300161 21 18409161112715085723
33824 294 18336265661438323898
351380 180 18410573993757346417
3545911 37 18410576184180000956
42 15 18334296465739320086
4214541 1 18410013217300145377
42788 4 18410575084663098405
5104073 3 18411140225060371641
542803 24 17313107453393073012
67856867 119 18263926707965783300
69090 78 18409166614726707299
7495541 125 17632291332498133723
77779 3 18410577287981314753
9709674 26 18411428310024126047
9971528 1 17748828523082528404

>  <PUBCHEM_SHAPE_MULTIPOLES>
317.53
12.99
1.36
0.71
0.09
0
0
0.08
0.11
0
0
-0.02
0
0

>  <PUBCHEM_SHAPE_SELFOVERLAP>
677.848

>  <PUBCHEM_SHAPE_VOLUME>
176.6

>  <PUBCHEM_COORDINATE_TYPE>
2
5
10

>  <Energy>
21.9921

$$$$
