449459
 OpenBabel09212612393D

 59 61  0  0  0  0  0  0  0  0999 V2000
    3.7230    0.4317    1.1302 O   0  0  0  0  0  0  0  0  0  0  0  0
   -5.0402    4.5776   -0.1616 O   0  0  0  0  0  0  0  0  0  0  0  0
    7.0139    1.0245   -0.5724 N   0  3  0  0  0  0  0  0  0  0  0  0
   -1.7890   -0.0125   -0.0369 C   0  0  0  0  0  0  0  0  0  0  0  0
   -2.3455   -1.2306   -0.2771 C   0  0  0  0  0  0  0  0  0  0  0  0
   -0.3448    0.1086    0.2560 C   0  0  0  0  0  0  0  0  0  0  0  0
   -3.8122   -1.4683   -0.5898 C   0  0  0  0  0  0  0  0  0  0  0  0
   -2.6325    1.2021   -0.0792 C   0  0  0  0  0  0  0  0  0  0  0  0
   -1.5371   -2.4731   -0.2790 C   0  0  0  0  0  0  0  0  0  0  0  0
    0.5515    0.3083   -0.7949 C   0  0  0  0  0  0  0  0  0  0  0  0
    0.1348    0.0400    1.5695 C   0  0  0  0  0  0  0  0  0  0  0  0
   -4.6247   -1.7656    0.6639 C   0  0  0  0  0  0  0  0  0  0  0  0
    2.4006    0.3412    0.7711 C   0  0  0  0  0  0  0  0  0  0  0  0
   -3.2666    1.6583    1.0809 C   0  0  0  0  0  0  0  0  0  0  0  0
   -2.7941    1.9079   -1.2815 C   0  0  0  0  0  0  0  0  0  0  0  0
    1.9152    0.4197   -0.5385 C   0  0  0  0  0  0  0  0  0  0  0  0
    1.5038    0.1549    1.8238 C   0  0  0  0  0  0  0  0  0  0  0  0
   -1.3745   -3.2097    0.8978 C   0  0  0  0  0  0  0  0  0  0  0  0
   -0.9244   -2.9178   -1.4602 C   0  0  0  0  0  0  0  0  0  0  0  0
    6.0517    0.8259    0.5327 C   0  0  0  0  0  0  0  0  0  0  0  0
    4.6117    0.6719    0.0368 C   0  0  0  0  0  0  0  0  0  0  0  0
   -4.0751    2.7941    1.0366 C   0  0  0  0  0  0  0  0  0  0  0  0
   -3.5992    3.0469   -1.3236 C   0  0  0  0  0  0  0  0  0  0  0  0
   -0.6192   -4.3829    0.8963 C   0  0  0  0  0  0  0  0  0  0  0  0
   -0.1645   -4.0908   -1.4561 C   0  0  0  0  0  0  0  0  0  0  0  0
   -4.2364    3.4760   -0.1635 C   0  0  0  0  0  0  0  0  0  0  0  0
   -0.0161   -4.8231   -0.2803 C   0  0  0  0  0  0  0  0  0  0  0  0
    6.7203    2.2315   -1.3494 C   0  0  0  0  0  0  0  0  0  0  0  0
    8.3760    1.0859   -0.0440 C   0  0  0  0  0  0  0  0  0  0  0  0
   -5.4601    4.8499    0.6306 H   0  0  0  0  0  0  0  0  0  0  0  0
    6.9262    0.2274   -1.2027 H   0  0  0  0  0  0  0  0  0  0  0  0
   -3.8920   -2.3002   -1.2580 H   0  0  0  0  0  0  0  0  0  0  0  0
   -4.2035   -0.5760   -1.0320 H   0  0  0  0  0  0  0  0  0  0  0  0
    0.2026    0.3735   -1.7640 H   0  0  0  0  0  0  0  0  0  0  0  0
   -0.5244   -0.0956    2.3518 H   0  0  0  0  0  0  0  0  0  0  0  0
   -4.2531   -2.6557    1.1270 H   0  0  0  0  0  0  0  0  0  0  0  0
   -5.6521   -1.9038    0.3986 H   0  0  0  0  0  0  0  0  0  0  0  0
   -4.5398   -0.9462    1.3467 H   0  0  0  0  0  0  0  0  0  0  0  0
   -3.1360    1.1536    1.9715 H   0  0  0  0  0  0  0  0  0  0  0  0
   -2.3162    1.5837   -2.1367 H   0  0  0  0  0  0  0  0  0  0  0  0
    2.5733    0.5613   -1.3207 H   0  0  0  0  0  0  0  0  0  0  0  0
    1.8530    0.1017    2.7935 H   0  0  0  0  0  0  0  0  0  0  0  0
   -1.8154   -2.8841    1.7722 H   0  0  0  0  0  0  0  0  0  0  0  0
   -1.0348   -2.3782   -2.3330 H   0  0  0  0  0  0  0  0  0  0  0  0
    6.1008    1.6717    1.1863 H   0  0  0  0  0  0  0  0  0  0  0  0
    6.3197   -0.0784    1.0379 H   0  0  0  0  0  0  0  0  0  0  0  0
    4.3155    1.5689   -0.4657 H   0  0  0  0  0  0  0  0  0  0  0  0
    4.5660   -0.1616   -0.6326 H   0  0  0  0  0  0  0  0  0  0  0  0
   -4.5508    3.1261    1.8901 H   0  0  0  0  0  0  0  0  0  0  0  0
   -3.7209    3.5662   -2.2071 H   0  0  0  0  0  0  0  0  0  0  0  0
   -0.5071   -4.9250    1.7672 H   0  0  0  0  0  0  0  0  0  0  0  0
    0.2872   -4.4151   -2.3255 H   0  0  0  0  0  0  0  0  0  0  0  0
    0.5408   -5.6919   -0.2806 H   0  0  0  0  0  0  0  0  0  0  0  0
    6.8030    3.0912   -0.7178 H   0  0  0  0  0  0  0  0  0  0  0  0
    5.7263    2.1708   -1.7408 H   0  0  0  0  0  0  0  0  0  0  0  0
    7.4172    2.3140   -2.1571 H   0  0  0  0  0  0  0  0  0  0  0  0
    8.4650    1.9228    0.6167 H   0  0  0  0  0  0  0  0  0  0  0  0
    9.0678    1.1950   -0.8530 H   0  0  0  0  0  0  0  0  0  0  0  0
    8.5920    0.1847    0.4909 H   0  0  0  0  0  0  0  0  0  0  0  0
  1 13  1  0  0  0  0
  1 21  1  0  0  0  0
  2 26  1  0  0  0  0
  2 30  1  0  0  0  0
  3 20  1  0  0  0  0
  3 28  1  0  0  0  0
  3 29  1  0  0  0  0
  3 31  1  0  0  0  0
  4  5  2  0  0  0  0
  4  6  1  0  0  0  0
  4  8  1  0  0  0  0
  5  7  1  0  0  0  0
  5  9  1  0  0  0  0
  6 10  2  0  0  0  0
  6 11  1  0  0  0  0
  7 12  1  0  0  0  0
  7 32  1  0  0  0  0
  7 33  1  0  0  0  0
  8 14  2  0  0  0  0
  8 15  1  0  0  0  0
  9 18  2  0  0  0  0
  9 19  1  0  0  0  0
 10 16  1  0  0  0  0
 10 34  1  0  0  0  0
 11 17  2  0  0  0  0
 11 35  1  0  0  0  0
 12 36  1  0  0  0  0
 12 37  1  0  0  0  0
 12 38  1  0  0  0  0
 13 16  2  0  0  0  0
 13 17  1  0  0  0  0
 14 22  1  0  0  0  0
 14 39  1  0  0  0  0
 15 23  2  0  0  0  0
 15 40  1  0  0  0  0
 16 41  1  0  0  0  0
 17 42  1  0  0  0  0
 18 24  1  0  0  0  0
 18 43  1  0  0  0  0
 19 25  2  0  0  0  0
 19 44  1  0  0  0  0
 20 21  1  0  0  0  0
 20 45  1  0  0  0  0
 20 46  1  0  0  0  0
 21 47  1  0  0  0  0
 21 48  1  0  0  0  0
 22 26  2  0  0  0  0
 22 49  1  0  0  0  0
 23 26  1  0  0  0  0
 23 50  1  0  0  0  0
 24 27  2  0  0  0  0
 24 51  1  0  0  0  0
 25 27  1  0  0  0  0
 25 52  1  0  0  0  0
 27 53  1  0  0  0  0
 28 54  1  0  0  0  0
 28 55  1  0  0  0  0
 28 56  1  0  0  0  0
 29 57  1  0  0  0  0
 29 58  1  0  0  0  0
 29 59  1  0  0  0  0
M  CHG  1   3   1
M  END
>  <PUBCHEM_COMPOUND_CID>
449459

>  <PUBCHEM_CONFORMER_RMSD>
1

>  <PUBCHEM_CONFORMER_DIVERSEORDER>
4
2
6
7
3
5
9
8
1

>  <PUBCHEM_MMFF94_PARTIAL_CHARGES>
42
1 -0.36
10 -0.15
11 -0.15
13 0.08
14 -0.15
15 -0.15
16 -0.15
17 -0.15
18 -0.15
19 -0.15
2 -0.53
20 0.27
21 0.28
22 -0.15
23 -0.15
24 -0.15
25 -0.15
26 0.08
27 -0.15
28 0.27
29 0.27
3 -0.81
32 0.15
33 0.15
37 0.15
38 0.15
39 0.15
4 -0.06
40 0.15
41 0.15
42 0.15
47 0.15
48 0.15
49 0.15
5 -0.17
50 0.15
51 0.15
58 0.45
6 0.03
7 0.14
8 0.03
9 0.03

>  <PUBCHEM_EFFECTIVE_ROTOR_COUNT>
8

>  <PUBCHEM_PHARMACOPHORE_FEATURES>
7
1 1 acceptor
1 12 hydrophobe
1 2 donor
1 3 cation
6 6 10 11 13 16 17 rings
6 8 14 15 22 23 26 rings
6 9 18 19 24 25 27 rings

>  <PUBCHEM_HEAVY_ATOM_COUNT>
29

>  <PUBCHEM_ATOM_DEF_STEREO_COUNT>
0

>  <PUBCHEM_ATOM_UDEF_STEREO_COUNT>
0

>  <PUBCHEM_BOND_DEF_STEREO_COUNT>
1

>  <PUBCHEM_BOND_UDEF_STEREO_COUNT>
0

>  <PUBCHEM_ISOTOPIC_ATOM_COUNT>
0

>  <PUBCHEM_COMPONENT_COUNT>
1

>  <PUBCHEM_CACTVS_TAUTO_COUNT>
2

>  <PUBCHEM_CONFORMER_ID>
0006DBB300000004

>  <PUBCHEM_MMFF94_ENERGY>
104.9846

>  <PUBCHEM_FEATURE_SELFOVERLAP>
35.52

>  <PUBCHEM_SHAPE_FINGERPRINT>
10165383 225 18202291282158887297
10190206 1 18271789230322910013
10369192 42 18337115566477869165
105312 117 18412827967246678412
10675989 125 17909838639379988136
107951 10 18343021073257678374
11049842 53 18195226842440633186
11578080 2 18198072370217370793
12390115 104 18412547591396635857
12788726 201 18265596857570115019
13140716 1 18266456495316477427
133893 2 17695070998687298691
13690498 29 18054789748482598966
13911987 19 18338505332069660893
14251757 5 18266456697111206010
15042514 8 18122626329844864523
15230672 131 18338237064829223438
15439362 3 17978228253626407109
15463212 79 18335128813295340498
167882 2 18052252899762421851
18785283 64 17904475204295036067
19304144 158 17985545805291681784
21033648 29 18200579363491628640
21120745 212 17975422630511486212
21756936 100 17749111093176010632
21796203 349 17394483589467202563
23559900 14 17983008144763832760
24771750 20 18198062473774535503
283562 15 18411411839662945583
3411729 13 18049718517149720547
4015057 19 16128363935317117248
4058900 60 18197788695653337360
5265222 85 18341613759073281530
57527295 17 17060050398453219733
58260988 587 18051699841598809401
6327066 14 18262795143261230829
6898599 12 18336829801129387020
9896288 288 18334581256515517731

>  <PUBCHEM_SHAPE_MULTIPOLES>
580.09
13.69
5.9
1.43
37.41
4.37
-0.08
-15.65
1.62
-8.49
1.24
0
0.09
-0.21

>  <PUBCHEM_SHAPE_SELFOVERLAP>
1241.294

>  <PUBCHEM_SHAPE_VOLUME>
323.7

>  <PUBCHEM_COORDINATE_TYPE>
2
5
10

>  <Energy>
93.7796

$$$$
