657298
 OpenBabel09212612393D

 21 21  0  0  0  0  0  0  0  0999 V2000
    2.2555   -2.6105    0.1737 S   0  0  0  0  0  0  0  0  0  0  0  0
    2.1577    2.3155    0.2074 O   0  0  0  0  0  0  0  0  0  0  0  0
    0.1348   -1.0824   -0.2390 N   0  0  0  0  0  0  0  0  0  0  0  0
    2.1275    0.0358    0.1745 N   0  0  0  0  0  0  0  0  0  0  0  0
   -2.0230    0.0195   -0.6819 C   0  0  0  0  0  0  0  0  0  0  0  0
   -0.5520    0.1019   -0.3707 C   0  0  0  0  0  0  0  0  0  0  0  0
   -2.8629   -0.0555    0.5944 C   0  0  0  0  0  0  0  0  0  0  0  0
    0.0964    1.2677   -0.2405 C   0  0  0  0  0  0  0  0  0  0  0  0
   -4.3479   -0.1268    0.2771 C   0  0  0  0  0  0  0  0  0  0  0  0
    1.4725   -1.1521    0.0304 C   0  0  0  0  0  0  0  0  0  0  0  0
    1.5403    1.2666    0.0646 C   0  0  0  0  0  0  0  0  0  0  0  0
   -0.3639   -1.9246   -0.3445 H   0  0  0  0  0  0  0  0  0  0  0  0
    3.0916    0.0053    0.3716 H   0  0  0  0  0  0  0  0  0  0  0  0
   -2.2055   -0.8555   -1.2701 H   0  0  0  0  0  0  0  0  0  0  0  0
   -2.3030    0.9032   -1.2164 H   0  0  0  0  0  0  0  0  0  0  0  0
   -2.6748    0.8155    1.1868 H   0  0  0  0  0  0  0  0  0  0  0  0
   -2.5889   -0.9425    1.1265 H   0  0  0  0  0  0  0  0  0  0  0  0
   -0.4104    2.1596   -0.3528 H   0  0  0  0  0  0  0  0  0  0  0  0
   -4.6414    0.7533   -0.2560 H   0  0  0  0  0  0  0  0  0  0  0  0
   -4.9045   -0.1941    1.1884 H   0  0  0  0  0  0  0  0  0  0  0  0
   -4.5430   -0.9899   -0.3245 H   0  0  0  0  0  0  0  0  0  0  0  0
  1 10  2  0  0  0  0
  2 11  2  0  0  0  0
  3  6  1  0  0  0  0
  3 10  1  0  0  0  0
  3 12  1  0  0  0  0
  4 10  1  0  0  0  0
  4 11  1  0  0  0  0
  4 13  1  0  0  0  0
  5  6  1  0  0  0  0
  5  7  1  0  0  0  0
  5 14  1  0  0  0  0
  5 15  1  0  0  0  0
  6  8  2  0  0  0  0
  7  9  1  0  0  0  0
  7 16  1  0  0  0  0
  7 17  1  0  0  0  0
  8 11  1  0  0  0  0
  8 18  1  0  0  0  0
  9 19  1  0  0  0  0
  9 20  1  0  0  0  0
  9 21  1  0  0  0  0
M  END
>  <PUBCHEM_COMPOUND_CID>
657298

>  <PUBCHEM_CONFORMER_RMSD>
0.4

>  <PUBCHEM_CONFORMER_DIVERSEORDER>
1
9
5
8
4
3
7
6
2

>  <PUBCHEM_MMFF94_PARTIAL_CHARGES>
12
1 -0.38
10 0.5
11 0.62
16 0.37
17 0.15
2 -0.57
21 0.37
3 -0.54
4 -0.49
5 0.14
6 -0.03
8 -0.14

>  <PUBCHEM_EFFECTIVE_ROTOR_COUNT>
2

>  <PUBCHEM_PHARMACOPHORE_FEATURES>
6
1 1 acceptor
1 2 acceptor
1 3 donor
1 4 donor
1 9 hydrophobe
6 3 4 6 8 10 11 rings

>  <PUBCHEM_HEAVY_ATOM_COUNT>
11

>  <PUBCHEM_ATOM_DEF_STEREO_COUNT>
0

>  <PUBCHEM_ATOM_UDEF_STEREO_COUNT>
0

>  <PUBCHEM_BOND_DEF_STEREO_COUNT>
0

>  <PUBCHEM_BOND_UDEF_STEREO_COUNT>
0

>  <PUBCHEM_ISOTOPIC_ATOM_COUNT>
0

>  <PUBCHEM_COMPONENT_COUNT>
1

>  <PUBCHEM_CACTVS_TAUTO_COUNT>
6

>  <PUBCHEM_CONFORMER_ID>
000A079200000001

>  <PUBCHEM_MMFF94_ENERGY>
11.312

>  <PUBCHEM_FEATURE_SELFOVERLAP>
30.488

>  <PUBCHEM_SHAPE_FINGERPRINT>
1 1 18338232786139060548
10980938 120 18412262869667001985
12346645 6 18413107281543323197
12932764 1 18411422812976936853
15501101 241 18261115157943504869
15775835 57 18058734744331109617
161256 15 18335138661375911676
16945 1 18411125944484028732
170605 34 18059302087898840301
17841504 4 18337392626037619899
20339313 130 18200036122963409694
20645477 70 18408877422295243639
20708731 107 18261121763518849094
20871998 184 17552906339802160366
20871998 22 18054511309541559198
21040471 1 17977941620631142900
2748010 2 17979898442111719702
3071541 250 18267875982202782982
528862 383 18410569604311273979
54173680 148 17545882629247834450
581208 293 18337386145100677711
7364860 26 18413671309681319702
81228 2 17331389875342348808

>  <PUBCHEM_SHAPE_MULTIPOLES>
214.39
5.29
2.28
0.72
6.28
0.06
0.02
-1.72
-0.89
-2.94
-0.18
0.2
-0.04
0.11

>  <PUBCHEM_SHAPE_SELFOVERLAP>
419.47

>  <PUBCHEM_SHAPE_VOLUME>
130.4

>  <PUBCHEM_COORDINATE_TYPE>
2
5
10

>  <Energy>
-78.6901

$$$$
