5991


 24 27  0  0  0  0  0  0  0  0999 V2000
   12.2072   42.4800  132.1295 O   0  0  0  0  0  0  0  0  0  0  0  0
    6.9309   51.4343  128.5907 O   0  0  0  0  0  0  0  0  0  0  0  0
   10.8991   44.5393  131.7265 C   0  0  0  0  0  0  0  0  0  0  0  0
   10.4662   45.6511  132.7100 C   0  0  0  0  0  0  0  0  0  0  0  0
   10.0790   46.9493  131.9976 C   0  0  0  0  0  0  0  0  0  0  0  0
   11.3341   43.4275  132.7320 C   0  0  0  0  0  0  0  0  0  0  0  0
    8.8734   46.6653  131.0519 C   0  0  0  0  0  0  0  0  0  0  0  0
    9.7063   44.2307  130.8020 C   0  0  0  0  0  0  0  0  0  0  0  0
   11.6005   45.6856  133.7310 C   0  0  0  0  0  0  0  0  0  0  0  0
    9.1821   45.4916  130.0863 C   0  0  0  0  0  0  0  0  0  0  0  0
   12.0900   44.2275  133.8261 C   0  0  0  0  0  0  0  0  0  0  0  0
    9.6922   48.0608  132.9763 C   0  0  0  0  0  0  0  0  0  0  0  0
   12.1137   44.9328  130.8347 C   0  0  0  0  0  0  0  0  0  0  0  0
    8.3865   47.9465  130.3758 C   0  0  0  0  0  0  0  0  0  0  0  0
    9.4642   49.3633  132.2160 C   0  0  0  0  0  0  0  0  0  0  0  0
    8.6383   49.2059  130.9636 C   0  0  0  0  0  0  0  0  0  0  0  0
    7.6016   47.9016  129.2108 C   0  0  0  0  0  0  0  0  0  0  0  0
    8.1562   50.3772  130.3485 C   0  0  0  0  0  0  0  0  0  0  0  0
    7.1189   49.0742  128.6141 C   0  0  0  0  0  0  0  0  0  0  0  0
    7.4051   50.3037  129.1867 C   0  0  0  0  0  0  0  0  0  0  0  0
   12.9596   42.9428  131.7287 H   0  0  0  0  0  0  0  0  0  0  0  0
    7.1152   52.2735  128.9645 H   0  0  0  0  0  0  0  0  0  0  0  0
   10.2042   42.6916  133.3301 C   0  0  0  0  0  0  0  0  0  0  0  0
    9.2730   42.1023  133.8134 C   0  0  0  0  0  0  0  0  0  0  0  0
  1  6  1  0
  1 21  1  0
  2 20  1  0
  2 22  1  0
  3  4  1  0
  3  6  1  0
  3  8  1  0
  3 13  1  0
  4  5  1  0
  4  9  1  0
  5  7  1  0
  5 12  1  0
  6 11  1  0
  6 23  1  0
  7 10  1  0
  7 14  1  0
  8 10  1  0
  9 11  1  0
 12 15  1  0
 14 16  2  0
 14 17  1  0
 15 16  1  0
 16 18  1  0
 23 24  3  0
 17 19  2  0
 18 20  2  0
 19 20  1  0
M  END
> <PUBCHEM_COMPOUND_CID>
5991

> <PUBCHEM_CONFORMER_RMSD>
0.6

> <PUBCHEM_CONFORMER_DIVERSEORDER>
1

> <PUBCHEM_MMFF94_PARTIAL_CHARGES>
19
1 -0.68
14 -0.14
15 0.14
16 -0.14
17 -0.2
18 -0.15
19 -0.15
2 -0.53
20 -0.15
21 0.08
22 -0.18
41 0.4
42 0.15
43 0.15
44 0.15
45 0.18
46 0.45
6 0.48
7 0.14

> <PUBCHEM_EFFECTIVE_ROTOR_COUNT>
1.4

> <PUBCHEM_PHARMACOPHORE_FEATURES>
8
1 1 acceptor
1 1 donor
1 2 donor
1 22 hydrophobe
5 3 4 6 9 11 rings
6 14 16 18 19 20 21 rings
6 3 4 5 7 8 10 rings
6 5 7 12 14 15 16 rings

> <PUBCHEM_HEAVY_ATOM_COUNT>
22

> <PUBCHEM_ATOM_DEF_STEREO_COUNT>
5

> <PUBCHEM_ATOM_UDEF_STEREO_COUNT>
0

> <PUBCHEM_BOND_DEF_STEREO_COUNT>
0

> <PUBCHEM_BOND_UDEF_STEREO_COUNT>
0

> <PUBCHEM_ISOTOPIC_ATOM_COUNT>
0

> <PUBCHEM_COMPONENT_COUNT>
1

> <PUBCHEM_CACTVS_TAUTO_COUNT>
9

> <PUBCHEM_CONFORMER_ID>
0000176700000001

> <PUBCHEM_MMFF94_ENERGY>
75.3654

> <PUBCHEM_FEATURE_SELFOVERLAP>
40.689

> <PUBCHEM_SHAPE_FINGERPRINT>
10498660 4 18334565854482978588
10616163 171 18412261769892000550
10906281 52 18268729332496851400
10967382 1 18409163299196382730
11132069 177 18260823830106114581
11315181 36 17846777438100329984
11552529 35 18058445585631877095
11578080 2 16952518088400902894
11796584 16 15123796154675551020
12107183 9 17697047933183828707
12236239 1 17917992754997443209
12403259 415 18260540148118003532
12403814 3 17531241756051219503
12633257 1 18411416168188185458
12644460 14 18260827060354363322
12788726 201 17059505002047033793
128620 24 17385724690407290772
13140716 1 18264499557760559337
13224815 77 18408318891198213202
13675066 3 17749393654488776519
14790565 3 18338806709892665688
15163728 17 15481289097577292713
15183329 4 18408605830407435614
15196674 1 18337388339818468438
15209289 33 18341332270467662817
15209294 21 18059584555192331817
15309172 13 18409451371427638915
15536298 74 18341610425830279326
15788980 27 17749105603943632888
16945 1 18265320738190372627
17349148 13 18114176445825312880
1813 80 17530976782159466655
18186145 218 18409161126111612646
19489759 90 15410896249631894657
19591789 44 18193273216009210722
200 152 17918273168974754922
21033648 29 17968079933063946356
21267235 1 18338240469814837151
21623110 236 18263368155990106261
23402539 116 18410566319162361766
23402655 69 18201721773563375622
23559900 14 18341325700027887232
335352 9 18410007719541319564
34934 24 18335695014618288215
350125 39 18408603674022772468
3545911 37 18408602569419241710
3680242 22 18335416829913620042
4214541 1 18412824715549947695
474 4 18408605889666299408
5104073 3 18339077194179428906
542803 24 17561084709247609168
59755656 215 18335983078396721054
633830 44 18202282537272954908
9709674 26 18410014338397756278

> <PUBCHEM_SHAPE_MULTIPOLES>
441.01
10.64
2.03
1.22
7.18
0.55
-0.05
-1.94
-1.01
0.21
-0.15
-1.94
-0.33
-0.49

> <PUBCHEM_SHAPE_SELFOVERLAP>
961.464

> <PUBCHEM_SHAPE_VOLUME>
238.8

> <PUBCHEM_COORDINATE_TYPE>
2
5
10

> <Energy>
61.5647

> <minimizedAffinity>
-9.95670

> <CNNscore>
0.9551191926

> <CNNaffinity>
8.5793418884

> <CNN_VS>
8.1942939758

> <CNNaffinity_variance>
1.0703161955

$$$$
5991


 24 27  0  0  0  0  0  0  0  0999 V2000
   11.0570   43.4662  134.9879 O   0  0  0  0  0  0  0  0  0  0  0  0
    6.5040   51.4867  129.0311 O   0  0  0  0  0  0  0  0  0  0  0  0
   10.0435   45.0003  133.3346 C   0  0  0  0  0  0  0  0  0  0  0  0
    9.2986   44.6900  132.0157 C   0  0  0  0  0  0  0  0  0  0  0  0
    8.4438   45.8640  131.5321 C   0  0  0  0  0  0  0  0  0  0  0  0
   10.7033   43.6145  133.6183 C   0  0  0  0  0  0  0  0  0  0  0  0
    9.3712   47.0884  131.2691 C   0  0  0  0  0  0  0  0  0  0  0  0
   10.9839   46.1937  133.0808 C   0  0  0  0  0  0  0  0  0  0  0  0
    8.6165   43.3537  132.2973 C   0  0  0  0  0  0  0  0  0  0  0  0
   10.2343   47.4163  132.5152 C   0  0  0  0  0  0  0  0  0  0  0  0
    9.5770   42.6132  133.2479 C   0  0  0  0  0  0  0  0  0  0  0  0
    7.6746   45.5382  130.2496 C   0  0  0  0  0  0  0  0  0  0  0  0
    9.0967   45.3724  134.5138 C   0  0  0  0  0  0  0  0  0  0  0  0
    8.5828   48.2680  130.7011 C   0  0  0  0  0  0  0  0  0  0  0  0
    6.7325   46.6874  129.9052 C   0  0  0  0  0  0  0  0  0  0  0  0
    7.3621   48.0531  130.0239 C   0  0  0  0  0  0  0  0  0  0  0  0
    9.0918   49.5769  130.7546 C   0  0  0  0  0  0  0  0  0  0  0  0
    6.6611   49.1445  129.4761 C   0  0  0  0  0  0  0  0  0  0  0  0
    8.3893   50.6533  130.1962 C   0  0  0  0  0  0  0  0  0  0  0  0
    7.1759   50.4275  129.5652 C   0  0  0  0  0  0  0  0  0  0  0  0
   10.2797   43.6356  135.5429 H   0  0  0  0  0  0  0  0  0  0  0  0
    5.6825   51.3518  128.6012 H   0  0  0  0  0  0  0  0  0  0  0  0
   11.9053   43.3506  132.8050 C   0  0  0  0  0  0  0  0  0  0  0  0
   12.8807   43.1450  132.1309 C   0  0  0  0  0  0  0  0  0  0  0  0
  1  6  1  0
  1 21  1  0
  2 20  1  0
  2 22  1  0
  3  4  1  0
  3  6  1  0
  3  8  1  0
  3 13  1  0
  4  5  1  0
  4  9  1  0
  5  7  1  0
  5 12  1  0
  6 11  1  0
  6 23  1  0
  7 10  1  0
  7 14  1  0
  8 10  1  0
  9 11  1  0
 12 15  1  0
 14 16  2  0
 14 17  1  0
 15 16  1  0
 16 18  1  0
 23 24  3  0
 17 19  2  0
 18 20  2  0
 19 20  1  0
M  END
> <PUBCHEM_COMPOUND_CID>
5991

> <PUBCHEM_CONFORMER_RMSD>
0.6

> <PUBCHEM_CONFORMER_DIVERSEORDER>
1

> <PUBCHEM_MMFF94_PARTIAL_CHARGES>
19
1 -0.68
14 -0.14
15 0.14
16 -0.14
17 -0.2
18 -0.15
19 -0.15
2 -0.53
20 -0.15
21 0.08
22 -0.18
41 0.4
42 0.15
43 0.15
44 0.15
45 0.18
46 0.45
6 0.48
7 0.14

> <PUBCHEM_EFFECTIVE_ROTOR_COUNT>
1.4

> <PUBCHEM_PHARMACOPHORE_FEATURES>
8
1 1 acceptor
1 1 donor
1 2 donor
1 22 hydrophobe
5 3 4 6 9 11 rings
6 14 16 18 19 20 21 rings
6 3 4 5 7 8 10 rings
6 5 7 12 14 15 16 rings

> <PUBCHEM_HEAVY_ATOM_COUNT>
22

> <PUBCHEM_ATOM_DEF_STEREO_COUNT>
5

> <PUBCHEM_ATOM_UDEF_STEREO_COUNT>
0

> <PUBCHEM_BOND_DEF_STEREO_COUNT>
0

> <PUBCHEM_BOND_UDEF_STEREO_COUNT>
0

> <PUBCHEM_ISOTOPIC_ATOM_COUNT>
0

> <PUBCHEM_COMPONENT_COUNT>
1

> <PUBCHEM_CACTVS_TAUTO_COUNT>
9

> <PUBCHEM_CONFORMER_ID>
0000176700000001

> <PUBCHEM_MMFF94_ENERGY>
75.3654

> <PUBCHEM_FEATURE_SELFOVERLAP>
40.689

> <PUBCHEM_SHAPE_FINGERPRINT>
10498660 4 18334565854482978588
10616163 171 18412261769892000550
10906281 52 18268729332496851400
10967382 1 18409163299196382730
11132069 177 18260823830106114581
11315181 36 17846777438100329984
11552529 35 18058445585631877095
11578080 2 16952518088400902894
11796584 16 15123796154675551020
12107183 9 17697047933183828707
12236239 1 17917992754997443209
12403259 415 18260540148118003532
12403814 3 17531241756051219503
12633257 1 18411416168188185458
12644460 14 18260827060354363322
12788726 201 17059505002047033793
128620 24 17385724690407290772
13140716 1 18264499557760559337
13224815 77 18408318891198213202
13675066 3 17749393654488776519
14790565 3 18338806709892665688
15163728 17 15481289097577292713
15183329 4 18408605830407435614
15196674 1 18337388339818468438
15209289 33 18341332270467662817
15209294 21 18059584555192331817
15309172 13 18409451371427638915
15536298 74 18341610425830279326
15788980 27 17749105603943632888
16945 1 18265320738190372627
17349148 13 18114176445825312880
1813 80 17530976782159466655
18186145 218 18409161126111612646
19489759 90 15410896249631894657
19591789 44 18193273216009210722
200 152 17918273168974754922
21033648 29 17968079933063946356
21267235 1 18338240469814837151
21623110 236 18263368155990106261
23402539 116 18410566319162361766
23402655 69 18201721773563375622
23559900 14 18341325700027887232
335352 9 18410007719541319564
34934 24 18335695014618288215
350125 39 18408603674022772468
3545911 37 18408602569419241710
3680242 22 18335416829913620042
4214541 1 18412824715549947695
474 4 18408605889666299408
5104073 3 18339077194179428906
542803 24 17561084709247609168
59755656 215 18335983078396721054
633830 44 18202282537272954908
9709674 26 18410014338397756278

> <PUBCHEM_SHAPE_MULTIPOLES>
441.01
10.64
2.03
1.22
7.18
0.55
-0.05
-1.94
-1.01
0.21
-0.15
-1.94
-0.33
-0.49

> <PUBCHEM_SHAPE_SELFOVERLAP>
961.464

> <PUBCHEM_SHAPE_VOLUME>
238.8

> <PUBCHEM_COORDINATE_TYPE>
2
5
10

> <Energy>
61.5647

> <minimizedAffinity>
-8.98905

> <CNNscore>
0.5983126760

> <CNNaffinity>
7.8465580940

> <CNN_VS>
4.6946949959

> <CNNaffinity_variance>
0.6701795459

$$$$
5991


 24 27  0  0  0  0  0  0  0  0999 V2000
   10.4634   42.3343  133.2474 O   0  0  0  0  0  0  0  0  0  0  0  0
    6.9145   52.0812  129.6493 O   0  0  0  0  0  0  0  0  0  0  0  0
    9.8319   44.4180  132.0753 C   0  0  0  0  0  0  0  0  0  0  0  0
    9.6596   44.6960  130.5641 C   0  0  0  0  0  0  0  0  0  0  0  0
    8.8318   45.9534  130.2875 C   0  0  0  0  0  0  0  0  0  0  0  0
   10.5873   43.0530  132.0262 C   0  0  0  0  0  0  0  0  0  0  0  0
    9.5591   47.1831  130.9098 C   0  0  0  0  0  0  0  0  0  0  0  0
   10.5734   45.6158  132.6982 C   0  0  0  0  0  0  0  0  0  0  0  0
    9.1716   43.3604  130.0090 C   0  0  0  0  0  0  0  0  0  0  0  0
    9.8623   46.9537  132.4134 C   0  0  0  0  0  0  0  0  0  0  0  0
    9.8572   42.2947  130.8859 C   0  0  0  0  0  0  0  0  0  0  0  0
    8.6272   46.2016  128.7910 C   0  0  0  0  0  0  0  0  0  0  0  0
    8.4842   44.2352  132.8341 C   0  0  0  0  0  0  0  0  0  0  0  0
    8.8207   48.4826  130.5911 C   0  0  0  0  0  0  0  0  0  0  0  0
    7.6751   47.3757  128.5867 C   0  0  0  0  0  0  0  0  0  0  0  0
    7.9704   48.5651  129.4662 C   0  0  0  0  0  0  0  0  0  0  0  0
    9.0379   49.6474  131.3470 C   0  0  0  0  0  0  0  0  0  0  0  0
    7.3212   49.7774  129.1638 C   0  0  0  0  0  0  0  0  0  0  0  0
    8.3936   50.8507  131.0293 C   0  0  0  0  0  0  0  0  0  0  0  0
    7.5359   50.9035  129.9415 C   0  0  0  0  0  0  0  0  0  0  0  0
    9.5248   42.2391  133.4728 H   0  0  0  0  0  0  0  0  0  0  0  0
    6.3316   52.1343  128.9176 H   0  0  0  0  0  0  0  0  0  0  0  0
   12.0235   43.1792  131.7143 C   0  0  0  0  0  0  0  0  0  0  0  0
   13.1925   43.2960  131.4539 C   0  0  0  0  0  0  0  0  0  0  0  0
  1  6  1  0
  1 21  1  0
  2 20  1  0
  2 22  1  0
  3  4  1  0
  3  6  1  0
  3  8  1  0
  3 13  1  0
  4  5  1  0
  4  9  1  0
  5  7  1  0
  5 12  1  0
  6 11  1  0
  6 23  1  0
  7 10  1  0
  7 14  1  0
  8 10  1  0
  9 11  1  0
 12 15  1  0
 14 16  2  0
 14 17  1  0
 15 16  1  0
 16 18  1  0
 23 24  3  0
 17 19  2  0
 18 20  2  0
 19 20  1  0
M  END
> <PUBCHEM_COMPOUND_CID>
5991

> <PUBCHEM_CONFORMER_RMSD>
0.6

> <PUBCHEM_CONFORMER_DIVERSEORDER>
1

> <PUBCHEM_MMFF94_PARTIAL_CHARGES>
19
1 -0.68
14 -0.14
15 0.14
16 -0.14
17 -0.2
18 -0.15
19 -0.15
2 -0.53
20 -0.15
21 0.08
22 -0.18
41 0.4
42 0.15
43 0.15
44 0.15
45 0.18
46 0.45
6 0.48
7 0.14

> <PUBCHEM_EFFECTIVE_ROTOR_COUNT>
1.4

> <PUBCHEM_PHARMACOPHORE_FEATURES>
8
1 1 acceptor
1 1 donor
1 2 donor
1 22 hydrophobe
5 3 4 6 9 11 rings
6 14 16 18 19 20 21 rings
6 3 4 5 7 8 10 rings
6 5 7 12 14 15 16 rings

> <PUBCHEM_HEAVY_ATOM_COUNT>
22

> <PUBCHEM_ATOM_DEF_STEREO_COUNT>
5

> <PUBCHEM_ATOM_UDEF_STEREO_COUNT>
0

> <PUBCHEM_BOND_DEF_STEREO_COUNT>
0

> <PUBCHEM_BOND_UDEF_STEREO_COUNT>
0

> <PUBCHEM_ISOTOPIC_ATOM_COUNT>
0

> <PUBCHEM_COMPONENT_COUNT>
1

> <PUBCHEM_CACTVS_TAUTO_COUNT>
9

> <PUBCHEM_CONFORMER_ID>
0000176700000001

> <PUBCHEM_MMFF94_ENERGY>
75.3654

> <PUBCHEM_FEATURE_SELFOVERLAP>
40.689

> <PUBCHEM_SHAPE_FINGERPRINT>
10498660 4 18334565854482978588
10616163 171 18412261769892000550
10906281 52 18268729332496851400
10967382 1 18409163299196382730
11132069 177 18260823830106114581
11315181 36 17846777438100329984
11552529 35 18058445585631877095
11578080 2 16952518088400902894
11796584 16 15123796154675551020
12107183 9 17697047933183828707
12236239 1 17917992754997443209
12403259 415 18260540148118003532
12403814 3 17531241756051219503
12633257 1 18411416168188185458
12644460 14 18260827060354363322
12788726 201 17059505002047033793
128620 24 17385724690407290772
13140716 1 18264499557760559337
13224815 77 18408318891198213202
13675066 3 17749393654488776519
14790565 3 18338806709892665688
15163728 17 15481289097577292713
15183329 4 18408605830407435614
15196674 1 18337388339818468438
15209289 33 18341332270467662817
15209294 21 18059584555192331817
15309172 13 18409451371427638915
15536298 74 18341610425830279326
15788980 27 17749105603943632888
16945 1 18265320738190372627
17349148 13 18114176445825312880
1813 80 17530976782159466655
18186145 218 18409161126111612646
19489759 90 15410896249631894657
19591789 44 18193273216009210722
200 152 17918273168974754922
21033648 29 17968079933063946356
21267235 1 18338240469814837151
21623110 236 18263368155990106261
23402539 116 18410566319162361766
23402655 69 18201721773563375622
23559900 14 18341325700027887232
335352 9 18410007719541319564
34934 24 18335695014618288215
350125 39 18408603674022772468
3545911 37 18408602569419241710
3680242 22 18335416829913620042
4214541 1 18412824715549947695
474 4 18408605889666299408
5104073 3 18339077194179428906
542803 24 17561084709247609168
59755656 215 18335983078396721054
633830 44 18202282537272954908
9709674 26 18410014338397756278

> <PUBCHEM_SHAPE_MULTIPOLES>
441.01
10.64
2.03
1.22
7.18
0.55
-0.05
-1.94
-1.01
0.21
-0.15
-1.94
-0.33
-0.49

> <PUBCHEM_SHAPE_SELFOVERLAP>
961.464

> <PUBCHEM_SHAPE_VOLUME>
238.8

> <PUBCHEM_COORDINATE_TYPE>
2
5
10

> <Energy>
61.5647

> <minimizedAffinity>
-5.99304

> <CNNscore>
0.3773611784

> <CNNaffinity>
7.4804282188

> <CNN_VS>
2.8228232861

> <CNNaffinity_variance>
0.8440699577

$$$$
5991


 24 27  0  0  0  0  0  0  0  0999 V2000
    6.6367   50.2519  129.4498 O   0  0  0  0  0  0  0  0  0  0  0  0
   13.4853   43.1758  134.3044 O   0  0  0  0  0  0  0  0  0  0  0  0
    8.0480   48.3890  130.2572 C   0  0  0  0  0  0  0  0  0  0  0  0
    8.5436   47.1242  129.5188 C   0  0  0  0  0  0  0  0  0  0  0  0
    9.7437   46.4715  130.2092 C   0  0  0  0  0  0  0  0  0  0  0  0
    6.9377   48.8731  129.2728 C   0  0  0  0  0  0  0  0  0  0  0  0
    9.3252   46.0405  131.6471 C   0  0  0  0  0  0  0  0  0  0  0  0
    7.6066   47.9716  131.6727 C   0  0  0  0  0  0  0  0  0  0  0  0
    8.6943   47.5911  128.0733 C   0  0  0  0  0  0  0  0  0  0  0  0
    8.7225   47.2315  132.4367 C   0  0  0  0  0  0  0  0  0  0  0  0
    7.5857   48.6441  127.8814 C   0  0  0  0  0  0  0  0  0  0  0  0
   10.2581   45.2447  129.4522 C   0  0  0  0  0  0  0  0  0  0  0  0
    9.1339   49.4968  130.3958 C   0  0  0  0  0  0  0  0  0  0  0  0
   10.4609   45.3040  132.3567 C   0  0  0  0  0  0  0  0  0  0  0  0
   11.5381   44.7330  130.1053 C   0  0  0  0  0  0  0  0  0  0  0  0
   11.4709   44.6576  131.6103 C   0  0  0  0  0  0  0  0  0  0  0  0
   10.4802   45.1715  133.7557 C   0  0  0  0  0  0  0  0  0  0  0  0
   12.4939   43.9543  132.2747 C   0  0  0  0  0  0  0  0  0  0  0  0
   11.4985   44.4598  134.4043 C   0  0  0  0  0  0  0  0  0  0  0  0
   12.5004   43.8608  133.6568 C   0  0  0  0  0  0  0  0  0  0  0  0
    7.4528   50.7721  129.3847 H   0  0  0  0  0  0  0  0  0  0  0  0
   14.1702   42.7649  133.8144 H   0  0  0  0  0  0  0  0  0  0  0  0
    5.6776   48.1134  129.3777 C   0  0  0  0  0  0  0  0  0  0  0  0
    4.6575   47.4806  129.4610 C   0  0  0  0  0  0  0  0  0  0  0  0
  1  6  1  0
  1 21  1  0
  2 20  1  0
  2 22  1  0
  3  4  1  0
  3  6  1  0
  3  8  1  0
  3 13  1  0
  4  5  1  0
  4  9  1  0
  5  7  1  0
  5 12  1  0
  6 11  1  0
  6 23  1  0
  7 10  1  0
  7 14  1  0
  8 10  1  0
  9 11  1  0
 12 15  1  0
 14 16  2  0
 14 17  1  0
 15 16  1  0
 16 18  1  0
 23 24  3  0
 17 19  2  0
 18 20  2  0
 19 20  1  0
M  END
> <PUBCHEM_COMPOUND_CID>
5991

> <PUBCHEM_CONFORMER_RMSD>
0.6

> <PUBCHEM_CONFORMER_DIVERSEORDER>
1

> <PUBCHEM_MMFF94_PARTIAL_CHARGES>
19
1 -0.68
14 -0.14
15 0.14
16 -0.14
17 -0.2
18 -0.15
19 -0.15
2 -0.53
20 -0.15
21 0.08
22 -0.18
41 0.4
42 0.15
43 0.15
44 0.15
45 0.18
46 0.45
6 0.48
7 0.14

> <PUBCHEM_EFFECTIVE_ROTOR_COUNT>
1.4

> <PUBCHEM_PHARMACOPHORE_FEATURES>
8
1 1 acceptor
1 1 donor
1 2 donor
1 22 hydrophobe
5 3 4 6 9 11 rings
6 14 16 18 19 20 21 rings
6 3 4 5 7 8 10 rings
6 5 7 12 14 15 16 rings

> <PUBCHEM_HEAVY_ATOM_COUNT>
22

> <PUBCHEM_ATOM_DEF_STEREO_COUNT>
5

> <PUBCHEM_ATOM_UDEF_STEREO_COUNT>
0

> <PUBCHEM_BOND_DEF_STEREO_COUNT>
0

> <PUBCHEM_BOND_UDEF_STEREO_COUNT>
0

> <PUBCHEM_ISOTOPIC_ATOM_COUNT>
0

> <PUBCHEM_COMPONENT_COUNT>
1

> <PUBCHEM_CACTVS_TAUTO_COUNT>
9

> <PUBCHEM_CONFORMER_ID>
0000176700000001

> <PUBCHEM_MMFF94_ENERGY>
75.3654

> <PUBCHEM_FEATURE_SELFOVERLAP>
40.689

> <PUBCHEM_SHAPE_FINGERPRINT>
10498660 4 18334565854482978588
10616163 171 18412261769892000550
10906281 52 18268729332496851400
10967382 1 18409163299196382730
11132069 177 18260823830106114581
11315181 36 17846777438100329984
11552529 35 18058445585631877095
11578080 2 16952518088400902894
11796584 16 15123796154675551020
12107183 9 17697047933183828707
12236239 1 17917992754997443209
12403259 415 18260540148118003532
12403814 3 17531241756051219503
12633257 1 18411416168188185458
12644460 14 18260827060354363322
12788726 201 17059505002047033793
128620 24 17385724690407290772
13140716 1 18264499557760559337
13224815 77 18408318891198213202
13675066 3 17749393654488776519
14790565 3 18338806709892665688
15163728 17 15481289097577292713
15183329 4 18408605830407435614
15196674 1 18337388339818468438
15209289 33 18341332270467662817
15209294 21 18059584555192331817
15309172 13 18409451371427638915
15536298 74 18341610425830279326
15788980 27 17749105603943632888
16945 1 18265320738190372627
17349148 13 18114176445825312880
1813 80 17530976782159466655
18186145 218 18409161126111612646
19489759 90 15410896249631894657
19591789 44 18193273216009210722
200 152 17918273168974754922
21033648 29 17968079933063946356
21267235 1 18338240469814837151
21623110 236 18263368155990106261
23402539 116 18410566319162361766
23402655 69 18201721773563375622
23559900 14 18341325700027887232
335352 9 18410007719541319564
34934 24 18335695014618288215
350125 39 18408603674022772468
3545911 37 18408602569419241710
3680242 22 18335416829913620042
4214541 1 18412824715549947695
474 4 18408605889666299408
5104073 3 18339077194179428906
542803 24 17561084709247609168
59755656 215 18335983078396721054
633830 44 18202282537272954908
9709674 26 18410014338397756278

> <PUBCHEM_SHAPE_MULTIPOLES>
441.01
10.64
2.03
1.22
7.18
0.55
-0.05
-1.94
-1.01
0.21
-0.15
-1.94
-0.33
-0.49

> <PUBCHEM_SHAPE_SELFOVERLAP>
961.464

> <PUBCHEM_SHAPE_VOLUME>
238.8

> <PUBCHEM_COORDINATE_TYPE>
2
5
10

> <Energy>
61.5647

> <minimizedAffinity>
-4.67166

> <CNNscore>
0.1854272038

> <CNNaffinity>
6.9736003876

> <CNN_VS>
1.2930952311

> <CNNaffinity_variance>
0.4105726182

$$$$
5991


 24 27  0  0  0  0  0  0  0  0999 V2000
    7.1171   50.0586  128.0768 O   0  0  0  0  0  0  0  0  0  0  0  0
   12.8536   43.2618  134.5140 O   0  0  0  0  0  0  0  0  0  0  0  0
    8.0439   48.4412  129.7014 C   0  0  0  0  0  0  0  0  0  0  0  0
    7.3498   47.2898  130.4650 C   0  0  0  0  0  0  0  0  0  0  0  0
    8.3434   46.2587  131.0057 C   0  0  0  0  0  0  0  0  0  0  0  0
    6.7986   49.2298  129.1880 C   0  0  0  0  0  0  0  0  0  0  0  0
    9.3109   46.9651  132.0024 C   0  0  0  0  0  0  0  0  0  0  0  0
    8.9847   49.1646  130.6835 C   0  0  0  0  0  0  0  0  0  0  0  0
    6.2638   46.8245  129.4984 C   0  0  0  0  0  0  0  0  0  0  0  0
    9.9856   48.1996  131.3496 C   0  0  0  0  0  0  0  0  0  0  0  0
    5.8306   48.0992  128.7486 C   0  0  0  0  0  0  0  0  0  0  0  0
    7.6498   45.0985  131.7238 C   0  0  0  0  0  0  0  0  0  0  0  0
    8.8897   47.9626  128.4844 C   0  0  0  0  0  0  0  0  0  0  0  0
   10.2741   45.9653  132.6413 C   0  0  0  0  0  0  0  0  0  0  0  0
    8.6773   44.0374  132.1045 C   0  0  0  0  0  0  0  0  0  0  0  0
    9.9372   44.5958  132.7178 C   0  0  0  0  0  0  0  0  0  0  0  0
   11.4684   46.3910  133.2479 C   0  0  0  0  0  0  0  0  0  0  0  0
   10.8181   43.6893  133.3383 C   0  0  0  0  0  0  0  0  0  0  0  0
   12.3316   45.4801  133.8715 C   0  0  0  0  0  0  0  0  0  0  0  0
   12.0004   44.1345  133.9068 C   0  0  0  0  0  0  0  0  0  0  0  0
    7.5380   49.5245  127.3851 H   0  0  0  0  0  0  0  0  0  0  0  0
   12.6451   42.3489  134.5468 H   0  0  0  0  0  0  0  0  0  0  0  0
    6.1619   50.0719  130.2182 C   0  0  0  0  0  0  0  0  0  0  0  0
    5.6398   50.7463  131.0670 C   0  0  0  0  0  0  0  0  0  0  0  0
  1  6  1  0
  1 21  1  0
  2 20  1  0
  2 22  1  0
  3  4  1  0
  3  6  1  0
  3  8  1  0
  3 13  1  0
  4  5  1  0
  4  9  1  0
  5  7  1  0
  5 12  1  0
  6 11  1  0
  6 23  1  0
  7 10  1  0
  7 14  1  0
  8 10  1  0
  9 11  1  0
 12 15  1  0
 14 16  2  0
 14 17  1  0
 15 16  1  0
 16 18  1  0
 23 24  3  0
 17 19  2  0
 18 20  2  0
 19 20  1  0
M  END
> <PUBCHEM_COMPOUND_CID>
5991

> <PUBCHEM_CONFORMER_RMSD>
0.6

> <PUBCHEM_CONFORMER_DIVERSEORDER>
1

> <PUBCHEM_MMFF94_PARTIAL_CHARGES>
19
1 -0.68
14 -0.14
15 0.14
16 -0.14
17 -0.2
18 -0.15
19 -0.15
2 -0.53
20 -0.15
21 0.08
22 -0.18
41 0.4
42 0.15
43 0.15
44 0.15
45 0.18
46 0.45
6 0.48
7 0.14

> <PUBCHEM_EFFECTIVE_ROTOR_COUNT>
1.4

> <PUBCHEM_PHARMACOPHORE_FEATURES>
8
1 1 acceptor
1 1 donor
1 2 donor
1 22 hydrophobe
5 3 4 6 9 11 rings
6 14 16 18 19 20 21 rings
6 3 4 5 7 8 10 rings
6 5 7 12 14 15 16 rings

> <PUBCHEM_HEAVY_ATOM_COUNT>
22

> <PUBCHEM_ATOM_DEF_STEREO_COUNT>
5

> <PUBCHEM_ATOM_UDEF_STEREO_COUNT>
0

> <PUBCHEM_BOND_DEF_STEREO_COUNT>
0

> <PUBCHEM_BOND_UDEF_STEREO_COUNT>
0

> <PUBCHEM_ISOTOPIC_ATOM_COUNT>
0

> <PUBCHEM_COMPONENT_COUNT>
1

> <PUBCHEM_CACTVS_TAUTO_COUNT>
9

> <PUBCHEM_CONFORMER_ID>
0000176700000001

> <PUBCHEM_MMFF94_ENERGY>
75.3654

> <PUBCHEM_FEATURE_SELFOVERLAP>
40.689

> <PUBCHEM_SHAPE_FINGERPRINT>
10498660 4 18334565854482978588
10616163 171 18412261769892000550
10906281 52 18268729332496851400
10967382 1 18409163299196382730
11132069 177 18260823830106114581
11315181 36 17846777438100329984
11552529 35 18058445585631877095
11578080 2 16952518088400902894
11796584 16 15123796154675551020
12107183 9 17697047933183828707
12236239 1 17917992754997443209
12403259 415 18260540148118003532
12403814 3 17531241756051219503
12633257 1 18411416168188185458
12644460 14 18260827060354363322
12788726 201 17059505002047033793
128620 24 17385724690407290772
13140716 1 18264499557760559337
13224815 77 18408318891198213202
13675066 3 17749393654488776519
14790565 3 18338806709892665688
15163728 17 15481289097577292713
15183329 4 18408605830407435614
15196674 1 18337388339818468438
15209289 33 18341332270467662817
15209294 21 18059584555192331817
15309172 13 18409451371427638915
15536298 74 18341610425830279326
15788980 27 17749105603943632888
16945 1 18265320738190372627
17349148 13 18114176445825312880
1813 80 17530976782159466655
18186145 218 18409161126111612646
19489759 90 15410896249631894657
19591789 44 18193273216009210722
200 152 17918273168974754922
21033648 29 17968079933063946356
21267235 1 18338240469814837151
21623110 236 18263368155990106261
23402539 116 18410566319162361766
23402655 69 18201721773563375622
23559900 14 18341325700027887232
335352 9 18410007719541319564
34934 24 18335695014618288215
350125 39 18408603674022772468
3545911 37 18408602569419241710
3680242 22 18335416829913620042
4214541 1 18412824715549947695
474 4 18408605889666299408
5104073 3 18339077194179428906
542803 24 17561084709247609168
59755656 215 18335983078396721054
633830 44 18202282537272954908
9709674 26 18410014338397756278

> <PUBCHEM_SHAPE_MULTIPOLES>
441.01
10.64
2.03
1.22
7.18
0.55
-0.05
-1.94
-1.01
0.21
-0.15
-1.94
-0.33
-0.49

> <PUBCHEM_SHAPE_SELFOVERLAP>
961.464

> <PUBCHEM_SHAPE_VOLUME>
238.8

> <PUBCHEM_COORDINATE_TYPE>
2
5
10

> <Energy>
61.5647

> <minimizedAffinity>
-5.16869

> <CNNscore>
0.1720457971

> <CNNaffinity>
7.1807389259

> <CNN_VS>
1.2354159355

> <CNNaffinity_variance>
0.6418845057

$$$$
5991


 24 27  0  0  0  0  0  0  0  0999 V2000
    8.0973   51.5123  130.2384 O   0  0  0  0  0  0  0  0  0  0  0  0
   11.1702   41.2003  132.4206 O   0  0  0  0  0  0  0  0  0  0  0  0
    8.4513   49.0810  130.5170 C   0  0  0  0  0  0  0  0  0  0  0  0
    7.9225   47.8960  129.6762 C   0  0  0  0  0  0  0  0  0  0  0  0
    8.7265   46.6124  129.8968 C   0  0  0  0  0  0  0  0  0  0  0  0
    7.5333   50.2296  129.9936 C   0  0  0  0  0  0  0  0  0  0  0  0
    8.6237   46.2045  131.3972 C   0  0  0  0  0  0  0  0  0  0  0  0
    8.3308   48.7003  132.0047 C   0  0  0  0  0  0  0  0  0  0  0  0
    7.8332   48.4716  128.2652 C   0  0  0  0  0  0  0  0  0  0  0  0
    9.0454   47.3726  132.3263 C   0  0  0  0  0  0  0  0  0  0  0  0
    7.4744   49.9566  128.4671 C   0  0  0  0  0  0  0  0  0  0  0  0
    8.2270   45.4532  129.0310 C   0  0  0  0  0  0  0  0  0  0  0  0
    9.9396   49.4369  130.2274 C   0  0  0  0  0  0  0  0  0  0  0  0
    9.3384   44.8796  131.6609 C   0  0  0  0  0  0  0  0  0  0  0  0
    9.1575   44.2543  129.1847 C   0  0  0  0  0  0  0  0  0  0  0  0
    9.5418   43.9553  130.6124 C   0  0  0  0  0  0  0  0  0  0  0  0
    9.7258   44.5075  132.9596 C   0  0  0  0  0  0  0  0  0  0  0  0
   10.1720   42.7237  130.8742 C   0  0  0  0  0  0  0  0  0  0  0  0
   10.3429   43.2741  133.2087 C   0  0  0  0  0  0  0  0  0  0  0  0
   10.5651   42.3940  132.1610 C   0  0  0  0  0  0  0  0  0  0  0  0
    8.9938   51.5470  129.8698 H   0  0  0  0  0  0  0  0  0  0  0  0
   11.3280   40.5937  131.7241 H   0  0  0  0  0  0  0  0  0  0  0  0
    6.1738   50.2118  130.5658 C   0  0  0  0  0  0  0  0  0  0  0  0
    5.0700   50.2046  131.0449 C   0  0  0  0  0  0  0  0  0  0  0  0
  1  6  1  0
  1 21  1  0
  2 20  1  0
  2 22  1  0
  3  4  1  0
  3  6  1  0
  3  8  1  0
  3 13  1  0
  4  5  1  0
  4  9  1  0
  5  7  1  0
  5 12  1  0
  6 11  1  0
  6 23  1  0
  7 10  1  0
  7 14  1  0
  8 10  1  0
  9 11  1  0
 12 15  1  0
 14 16  2  0
 14 17  1  0
 15 16  1  0
 16 18  1  0
 23 24  3  0
 17 19  2  0
 18 20  2  0
 19 20  1  0
M  END
> <PUBCHEM_COMPOUND_CID>
5991

> <PUBCHEM_CONFORMER_RMSD>
0.6

> <PUBCHEM_CONFORMER_DIVERSEORDER>
1

> <PUBCHEM_MMFF94_PARTIAL_CHARGES>
19
1 -0.68
14 -0.14
15 0.14
16 -0.14
17 -0.2
18 -0.15
19 -0.15
2 -0.53
20 -0.15
21 0.08
22 -0.18
41 0.4
42 0.15
43 0.15
44 0.15
45 0.18
46 0.45
6 0.48
7 0.14

> <PUBCHEM_EFFECTIVE_ROTOR_COUNT>
1.4

> <PUBCHEM_PHARMACOPHORE_FEATURES>
8
1 1 acceptor
1 1 donor
1 2 donor
1 22 hydrophobe
5 3 4 6 9 11 rings
6 14 16 18 19 20 21 rings
6 3 4 5 7 8 10 rings
6 5 7 12 14 15 16 rings

> <PUBCHEM_HEAVY_ATOM_COUNT>
22

> <PUBCHEM_ATOM_DEF_STEREO_COUNT>
5

> <PUBCHEM_ATOM_UDEF_STEREO_COUNT>
0

> <PUBCHEM_BOND_DEF_STEREO_COUNT>
0

> <PUBCHEM_BOND_UDEF_STEREO_COUNT>
0

> <PUBCHEM_ISOTOPIC_ATOM_COUNT>
0

> <PUBCHEM_COMPONENT_COUNT>
1

> <PUBCHEM_CACTVS_TAUTO_COUNT>
9

> <PUBCHEM_CONFORMER_ID>
0000176700000001

> <PUBCHEM_MMFF94_ENERGY>
75.3654

> <PUBCHEM_FEATURE_SELFOVERLAP>
40.689

> <PUBCHEM_SHAPE_FINGERPRINT>
10498660 4 18334565854482978588
10616163 171 18412261769892000550
10906281 52 18268729332496851400
10967382 1 18409163299196382730
11132069 177 18260823830106114581
11315181 36 17846777438100329984
11552529 35 18058445585631877095
11578080 2 16952518088400902894
11796584 16 15123796154675551020
12107183 9 17697047933183828707
12236239 1 17917992754997443209
12403259 415 18260540148118003532
12403814 3 17531241756051219503
12633257 1 18411416168188185458
12644460 14 18260827060354363322
12788726 201 17059505002047033793
128620 24 17385724690407290772
13140716 1 18264499557760559337
13224815 77 18408318891198213202
13675066 3 17749393654488776519
14790565 3 18338806709892665688
15163728 17 15481289097577292713
15183329 4 18408605830407435614
15196674 1 18337388339818468438
15209289 33 18341332270467662817
15209294 21 18059584555192331817
15309172 13 18409451371427638915
15536298 74 18341610425830279326
15788980 27 17749105603943632888
16945 1 18265320738190372627
17349148 13 18114176445825312880
1813 80 17530976782159466655
18186145 218 18409161126111612646
19489759 90 15410896249631894657
19591789 44 18193273216009210722
200 152 17918273168974754922
21033648 29 17968079933063946356
21267235 1 18338240469814837151
21623110 236 18263368155990106261
23402539 116 18410566319162361766
23402655 69 18201721773563375622
23559900 14 18341325700027887232
335352 9 18410007719541319564
34934 24 18335695014618288215
350125 39 18408603674022772468
3545911 37 18408602569419241710
3680242 22 18335416829913620042
4214541 1 18412824715549947695
474 4 18408605889666299408
5104073 3 18339077194179428906
542803 24 17561084709247609168
59755656 215 18335983078396721054
633830 44 18202282537272954908
9709674 26 18410014338397756278

> <PUBCHEM_SHAPE_MULTIPOLES>
441.01
10.64
2.03
1.22
7.18
0.55
-0.05
-1.94
-1.01
0.21
-0.15
-1.94
-0.33
-0.49

> <PUBCHEM_SHAPE_SELFOVERLAP>
961.464

> <PUBCHEM_SHAPE_VOLUME>
238.8

> <PUBCHEM_COORDINATE_TYPE>
2
5
10

> <Energy>
61.5647

> <minimizedAffinity>
-3.31711

> <CNNscore>
0.1671064943

> <CNNaffinity>
7.0264797211

> <CNN_VS>
1.1741703749

> <CNNaffinity_variance>
0.6823613644

$$$$
5991


 24 27  0  0  0  0  0  0  0  0999 V2000
    9.2218   39.0911  127.6298 O   0  0  0  0  0  0  0  0  0  0  0  0
   11.2924   47.4621  134.4256 O   0  0  0  0  0  0  0  0  0  0  0  0
    9.8810   41.1466  128.8359 C   0  0  0  0  0  0  0  0  0  0  0  0
   10.2521   42.5446  128.2897 C   0  0  0  0  0  0  0  0  0  0  0  0
   10.1500   43.6391  129.3549 C   0  0  0  0  0  0  0  0  0  0  0  0
    9.9608   40.3020  127.5258 C   0  0  0  0  0  0  0  0  0  0  0  0
   11.1406   43.3105  130.5120 C   0  0  0  0  0  0  0  0  0  0  0  0
   10.8702   40.7985  129.9643 C   0  0  0  0  0  0  0  0  0  0  0  0
    9.4048   42.6703  127.0261 C   0  0  0  0  0  0  0  0  0  0  0  0
   10.9055   41.8798  131.0626 C   0  0  0  0  0  0  0  0  0  0  0  0
    9.3074   41.2356  126.4724 C   0  0  0  0  0  0  0  0  0  0  0  0
   10.4765   45.0277  128.8000 C   0  0  0  0  0  0  0  0  0  0  0  0
    8.4377   41.0656  129.4153 C   0  0  0  0  0  0  0  0  0  0  0  0
   11.1450   44.4158  131.5675 C   0  0  0  0  0  0  0  0  0  0  0  0
   10.2121   46.0861  129.8661 C   0  0  0  0  0  0  0  0  0  0  0  0
   10.7443   45.7278  131.2313 C   0  0  0  0  0  0  0  0  0  0  0  0
   11.6318   44.1813  132.8649 C   0  0  0  0  0  0  0  0  0  0  0  0
   10.7839   46.7453  132.2038 C   0  0  0  0  0  0  0  0  0  0  0  0
   11.6760   45.2052  133.8207 C   0  0  0  0  0  0  0  0  0  0  0  0
   11.2463   46.4790  133.4823 C   0  0  0  0  0  0  0  0  0  0  0  0
    8.3107   39.2902  127.8965 H   0  0  0  0  0  0  0  0  0  0  0  0
   11.0058   48.3286  134.2136 H   0  0  0  0  0  0  0  0  0  0  0  0
   11.3379   39.9631  127.1198 C   0  0  0  0  0  0  0  0  0  0  0  0
   12.4568   39.6721  126.7861 C   0  0  0  0  0  0  0  0  0  0  0  0
  1  6  1  0
  1 21  1  0
  2 20  1  0
  2 22  1  0
  3  4  1  0
  3  6  1  0
  3  8  1  0
  3 13  1  0
  4  5  1  0
  4  9  1  0
  5  7  1  0
  5 12  1  0
  6 11  1  0
  6 23  1  0
  7 10  1  0
  7 14  1  0
  8 10  1  0
  9 11  1  0
 12 15  1  0
 14 16  2  0
 14 17  1  0
 15 16  1  0
 16 18  1  0
 23 24  3  0
 17 19  2  0
 18 20  2  0
 19 20  1  0
M  END
> <PUBCHEM_COMPOUND_CID>
5991

> <PUBCHEM_CONFORMER_RMSD>
0.6

> <PUBCHEM_CONFORMER_DIVERSEORDER>
1

> <PUBCHEM_MMFF94_PARTIAL_CHARGES>
19
1 -0.68
14 -0.14
15 0.14
16 -0.14
17 -0.2
18 -0.15
19 -0.15
2 -0.53
20 -0.15
21 0.08
22 -0.18
41 0.4
42 0.15
43 0.15
44 0.15
45 0.18
46 0.45
6 0.48
7 0.14

> <PUBCHEM_EFFECTIVE_ROTOR_COUNT>
1.4

> <PUBCHEM_PHARMACOPHORE_FEATURES>
8
1 1 acceptor
1 1 donor
1 2 donor
1 22 hydrophobe
5 3 4 6 9 11 rings
6 14 16 18 19 20 21 rings
6 3 4 5 7 8 10 rings
6 5 7 12 14 15 16 rings

> <PUBCHEM_HEAVY_ATOM_COUNT>
22

> <PUBCHEM_ATOM_DEF_STEREO_COUNT>
5

> <PUBCHEM_ATOM_UDEF_STEREO_COUNT>
0

> <PUBCHEM_BOND_DEF_STEREO_COUNT>
0

> <PUBCHEM_BOND_UDEF_STEREO_COUNT>
0

> <PUBCHEM_ISOTOPIC_ATOM_COUNT>
0

> <PUBCHEM_COMPONENT_COUNT>
1

> <PUBCHEM_CACTVS_TAUTO_COUNT>
9

> <PUBCHEM_CONFORMER_ID>
0000176700000001

> <PUBCHEM_MMFF94_ENERGY>
75.3654

> <PUBCHEM_FEATURE_SELFOVERLAP>
40.689

> <PUBCHEM_SHAPE_FINGERPRINT>
10498660 4 18334565854482978588
10616163 171 18412261769892000550
10906281 52 18268729332496851400
10967382 1 18409163299196382730
11132069 177 18260823830106114581
11315181 36 17846777438100329984
11552529 35 18058445585631877095
11578080 2 16952518088400902894
11796584 16 15123796154675551020
12107183 9 17697047933183828707
12236239 1 17917992754997443209
12403259 415 18260540148118003532
12403814 3 17531241756051219503
12633257 1 18411416168188185458
12644460 14 18260827060354363322
12788726 201 17059505002047033793
128620 24 17385724690407290772
13140716 1 18264499557760559337
13224815 77 18408318891198213202
13675066 3 17749393654488776519
14790565 3 18338806709892665688
15163728 17 15481289097577292713
15183329 4 18408605830407435614
15196674 1 18337388339818468438
15209289 33 18341332270467662817
15209294 21 18059584555192331817
15309172 13 18409451371427638915
15536298 74 18341610425830279326
15788980 27 17749105603943632888
16945 1 18265320738190372627
17349148 13 18114176445825312880
1813 80 17530976782159466655
18186145 218 18409161126111612646
19489759 90 15410896249631894657
19591789 44 18193273216009210722
200 152 17918273168974754922
21033648 29 17968079933063946356
21267235 1 18338240469814837151
21623110 236 18263368155990106261
23402539 116 18410566319162361766
23402655 69 18201721773563375622
23559900 14 18341325700027887232
335352 9 18410007719541319564
34934 24 18335695014618288215
350125 39 18408603674022772468
3545911 37 18408602569419241710
3680242 22 18335416829913620042
4214541 1 18412824715549947695
474 4 18408605889666299408
5104073 3 18339077194179428906
542803 24 17561084709247609168
59755656 215 18335983078396721054
633830 44 18202282537272954908
9709674 26 18410014338397756278

> <PUBCHEM_SHAPE_MULTIPOLES>
441.01
10.64
2.03
1.22
7.18
0.55
-0.05
-1.94
-1.01
0.21
-0.15
-1.94
-0.33
-0.49

> <PUBCHEM_SHAPE_SELFOVERLAP>
961.464

> <PUBCHEM_SHAPE_VOLUME>
238.8

> <PUBCHEM_COORDINATE_TYPE>
2
5
10

> <Energy>
61.5647

> <minimizedAffinity>
35.92314

> <CNNscore>
0.1437647641

> <CNNaffinity>
5.2504429817

> <CNN_VS>
0.7548286915

> <CNNaffinity_variance>
0.0546515882

$$$$
5991


 24 27  0  0  0  0  0  0  0  0999 V2000
    5.0186   49.4134  128.8176 O   0  0  0  0  0  0  0  0  0  0  0  0
   13.0627   42.8970  132.4743 O   0  0  0  0  0  0  0  0  0  0  0  0
    7.0014   48.2951  129.7831 C   0  0  0  0  0  0  0  0  0  0  0  0
    7.9627   48.7640  130.8996 C   0  0  0  0  0  0  0  0  0  0  0  0
    8.7644   47.6113  131.5089 C   0  0  0  0  0  0  0  0  0  0  0  0
    6.2668   49.6344  129.4628 C   0  0  0  0  0  0  0  0  0  0  0  0
    9.6294   46.9531  130.3923 C   0  0  0  0  0  0  0  0  0  0  0  0
    7.8472   47.6653  128.6602 C   0  0  0  0  0  0  0  0  0  0  0  0
    7.0683   49.5982  131.8132 C   0  0  0  0  0  0  0  0  0  0  0  0
    8.7571   46.5346  129.1803 C   0  0  0  0  0  0  0  0  0  0  0  0
    6.0375   50.2478  130.8698 C   0  0  0  0  0  0  0  0  0  0  0  0
    9.6832   48.0729  132.6427 C   0  0  0  0  0  0  0  0  0  0  0  0
    5.9620   47.2368  130.2578 C   0  0  0  0  0  0  0  0  0  0  0  0
   10.5185   45.8475  130.9604 C   0  0  0  0  0  0  0  0  0  0  0  0
   10.3373   46.8636  133.3034 C   0  0  0  0  0  0  0  0  0  0  0  0
   10.8757   45.8477  132.3269 C   0  0  0  0  0  0  0  0  0  0  0  0
   11.0761   44.8620  130.1277 C   0  0  0  0  0  0  0  0  0  0  0  0
   11.7222   44.8422  132.8319 C   0  0  0  0  0  0  0  0  0  0  0  0
   11.9258   43.8728  130.6408 C   0  0  0  0  0  0  0  0  0  0  0  0
   12.2378   43.8690  131.9915 C   0  0  0  0  0  0  0  0  0  0  0  0
    4.4821   48.8059  129.3507 H   0  0  0  0  0  0  0  0  0  0  0  0
   13.2838   42.8798  133.3847 H   0  0  0  0  0  0  0  0  0  0  0  0
    7.0551   50.5600  128.6274 C   0  0  0  0  0  0  0  0  0  0  0  0
    7.6871   51.3256  127.9475 C   0  0  0  0  0  0  0  0  0  0  0  0
  1  6  1  0
  1 21  1  0
  2 20  1  0
  2 22  1  0
  3  4  1  0
  3  6  1  0
  3  8  1  0
  3 13  1  0
  4  5  1  0
  4  9  1  0
  5  7  1  0
  5 12  1  0
  6 11  1  0
  6 23  1  0
  7 10  1  0
  7 14  1  0
  8 10  1  0
  9 11  1  0
 12 15  1  0
 14 16  2  0
 14 17  1  0
 15 16  1  0
 16 18  1  0
 23 24  3  0
 17 19  2  0
 18 20  2  0
 19 20  1  0
M  END
> <PUBCHEM_COMPOUND_CID>
5991

> <PUBCHEM_CONFORMER_RMSD>
0.6

> <PUBCHEM_CONFORMER_DIVERSEORDER>
1

> <PUBCHEM_MMFF94_PARTIAL_CHARGES>
19
1 -0.68
14 -0.14
15 0.14
16 -0.14
17 -0.2
18 -0.15
19 -0.15
2 -0.53
20 -0.15
21 0.08
22 -0.18
41 0.4
42 0.15
43 0.15
44 0.15
45 0.18
46 0.45
6 0.48
7 0.14

> <PUBCHEM_EFFECTIVE_ROTOR_COUNT>
1.4

> <PUBCHEM_PHARMACOPHORE_FEATURES>
8
1 1 acceptor
1 1 donor
1 2 donor
1 22 hydrophobe
5 3 4 6 9 11 rings
6 14 16 18 19 20 21 rings
6 3 4 5 7 8 10 rings
6 5 7 12 14 15 16 rings

> <PUBCHEM_HEAVY_ATOM_COUNT>
22

> <PUBCHEM_ATOM_DEF_STEREO_COUNT>
5

> <PUBCHEM_ATOM_UDEF_STEREO_COUNT>
0

> <PUBCHEM_BOND_DEF_STEREO_COUNT>
0

> <PUBCHEM_BOND_UDEF_STEREO_COUNT>
0

> <PUBCHEM_ISOTOPIC_ATOM_COUNT>
0

> <PUBCHEM_COMPONENT_COUNT>
1

> <PUBCHEM_CACTVS_TAUTO_COUNT>
9

> <PUBCHEM_CONFORMER_ID>
0000176700000001

> <PUBCHEM_MMFF94_ENERGY>
75.3654

> <PUBCHEM_FEATURE_SELFOVERLAP>
40.689

> <PUBCHEM_SHAPE_FINGERPRINT>
10498660 4 18334565854482978588
10616163 171 18412261769892000550
10906281 52 18268729332496851400
10967382 1 18409163299196382730
11132069 177 18260823830106114581
11315181 36 17846777438100329984
11552529 35 18058445585631877095
11578080 2 16952518088400902894
11796584 16 15123796154675551020
12107183 9 17697047933183828707
12236239 1 17917992754997443209
12403259 415 18260540148118003532
12403814 3 17531241756051219503
12633257 1 18411416168188185458
12644460 14 18260827060354363322
12788726 201 17059505002047033793
128620 24 17385724690407290772
13140716 1 18264499557760559337
13224815 77 18408318891198213202
13675066 3 17749393654488776519
14790565 3 18338806709892665688
15163728 17 15481289097577292713
15183329 4 18408605830407435614
15196674 1 18337388339818468438
15209289 33 18341332270467662817
15209294 21 18059584555192331817
15309172 13 18409451371427638915
15536298 74 18341610425830279326
15788980 27 17749105603943632888
16945 1 18265320738190372627
17349148 13 18114176445825312880
1813 80 17530976782159466655
18186145 218 18409161126111612646
19489759 90 15410896249631894657
19591789 44 18193273216009210722
200 152 17918273168974754922
21033648 29 17968079933063946356
21267235 1 18338240469814837151
21623110 236 18263368155990106261
23402539 116 18410566319162361766
23402655 69 18201721773563375622
23559900 14 18341325700027887232
335352 9 18410007719541319564
34934 24 18335695014618288215
350125 39 18408603674022772468
3545911 37 18408602569419241710
3680242 22 18335416829913620042
4214541 1 18412824715549947695
474 4 18408605889666299408
5104073 3 18339077194179428906
542803 24 17561084709247609168
59755656 215 18335983078396721054
633830 44 18202282537272954908
9709674 26 18410014338397756278

> <PUBCHEM_SHAPE_MULTIPOLES>
441.01
10.64
2.03
1.22
7.18
0.55
-0.05
-1.94
-1.01
0.21
-0.15
-1.94
-0.33
-0.49

> <PUBCHEM_SHAPE_SELFOVERLAP>
961.464

> <PUBCHEM_SHAPE_VOLUME>
238.8

> <PUBCHEM_COORDINATE_TYPE>
2
5
10

> <Energy>
61.5647

> <minimizedAffinity>
-2.00269

> <CNNscore>
0.1293534189

> <CNNaffinity>
6.5644989014

> <CNN_VS>
0.8491404057

> <CNNaffinity_variance>
0.4814908803

$$$$
5991


 24 27  0  0  0  0  0  0  0  0999 V2000
    6.4608   42.4213  132.8694 O   0  0  0  0  0  0  0  0  0  0  0  0
   15.7991   44.8066  127.6112 O   0  0  0  0  0  0  0  0  0  0  0  0
    8.6979   43.0889  132.0546 C   0  0  0  0  0  0  0  0  0  0  0  0
   10.0249   43.2693  132.8273 C   0  0  0  0  0  0  0  0  0  0  0  0
   11.2495   43.2389  131.9096 C   0  0  0  0  0  0  0  0  0  0  0  0
    7.6850   43.0428  133.2412 C   0  0  0  0  0  0  0  0  0  0  0  0
   11.1413   44.4085  130.8855 C   0  0  0  0  0  0  0  0  0  0  0  0
    8.5663   44.2544  131.0560 C   0  0  0  0  0  0  0  0  0  0  0  0
    9.9257   42.2413  133.9514 C   0  0  0  0  0  0  0  0  0  0  0  0
    9.7902   44.3653  130.1252 C   0  0  0  0  0  0  0  0  0  0  0  0
    8.4246   42.1747  134.2935 C   0  0  0  0  0  0  0  0  0  0  0  0
   12.5635   43.3748  132.6827 C   0  0  0  0  0  0  0  0  0  0  0  0
    8.6174   41.7549  131.2550 C   0  0  0  0  0  0  0  0  0  0  0  0
   12.3812   44.4809  129.9950 C   0  0  0  0  0  0  0  0  0  0  0  0
   13.7434   43.1872  131.7345 C   0  0  0  0  0  0  0  0  0  0  0  0
   13.6091   43.9368  130.4324 C   0  0  0  0  0  0  0  0  0  0  0  0
   12.3573   45.1666  128.7684 C   0  0  0  0  0  0  0  0  0  0  0  0
   14.7526   44.0387  129.6172 C   0  0  0  0  0  0  0  0  0  0  0  0
   13.5052   45.2700  127.9711 C   0  0  0  0  0  0  0  0  0  0  0  0
   14.6932   44.6999  128.4013 C   0  0  0  0  0  0  0  0  0  0  0  0
    6.6436   41.5457  132.4941 H   0  0  0  0  0  0  0  0  0  0  0  0
   16.6102   44.4271  127.8869 H   0  0  0  0  0  0  0  0  0  0  0  0
    7.3707   44.3686  133.8066 C   0  0  0  0  0  0  0  0  0  0  0  0
    7.0995   45.4462  134.2682 C   0  0  0  0  0  0  0  0  0  0  0  0
  1  6  1  0
  1 21  1  0
  2 20  1  0
  2 22  1  0
  3  4  1  0
  3  6  1  0
  3  8  1  0
  3 13  1  0
  4  5  1  0
  4  9  1  0
  5  7  1  0
  5 12  1  0
  6 11  1  0
  6 23  1  0
  7 10  1  0
  7 14  1  0
  8 10  1  0
  9 11  1  0
 12 15  1  0
 14 16  2  0
 14 17  1  0
 15 16  1  0
 16 18  1  0
 23 24  3  0
 17 19  2  0
 18 20  2  0
 19 20  1  0
M  END
> <PUBCHEM_COMPOUND_CID>
5991

> <PUBCHEM_CONFORMER_RMSD>
0.6

> <PUBCHEM_CONFORMER_DIVERSEORDER>
1

> <PUBCHEM_MMFF94_PARTIAL_CHARGES>
19
1 -0.68
14 -0.14
15 0.14
16 -0.14
17 -0.2
18 -0.15
19 -0.15
2 -0.53
20 -0.15
21 0.08
22 -0.18
41 0.4
42 0.15
43 0.15
44 0.15
45 0.18
46 0.45
6 0.48
7 0.14

> <PUBCHEM_EFFECTIVE_ROTOR_COUNT>
1.4

> <PUBCHEM_PHARMACOPHORE_FEATURES>
8
1 1 acceptor
1 1 donor
1 2 donor
1 22 hydrophobe
5 3 4 6 9 11 rings
6 14 16 18 19 20 21 rings
6 3 4 5 7 8 10 rings
6 5 7 12 14 15 16 rings

> <PUBCHEM_HEAVY_ATOM_COUNT>
22

> <PUBCHEM_ATOM_DEF_STEREO_COUNT>
5

> <PUBCHEM_ATOM_UDEF_STEREO_COUNT>
0

> <PUBCHEM_BOND_DEF_STEREO_COUNT>
0

> <PUBCHEM_BOND_UDEF_STEREO_COUNT>
0

> <PUBCHEM_ISOTOPIC_ATOM_COUNT>
0

> <PUBCHEM_COMPONENT_COUNT>
1

> <PUBCHEM_CACTVS_TAUTO_COUNT>
9

> <PUBCHEM_CONFORMER_ID>
0000176700000001

> <PUBCHEM_MMFF94_ENERGY>
75.3654

> <PUBCHEM_FEATURE_SELFOVERLAP>
40.689

> <PUBCHEM_SHAPE_FINGERPRINT>
10498660 4 18334565854482978588
10616163 171 18412261769892000550
10906281 52 18268729332496851400
10967382 1 18409163299196382730
11132069 177 18260823830106114581
11315181 36 17846777438100329984
11552529 35 18058445585631877095
11578080 2 16952518088400902894
11796584 16 15123796154675551020
12107183 9 17697047933183828707
12236239 1 17917992754997443209
12403259 415 18260540148118003532
12403814 3 17531241756051219503
12633257 1 18411416168188185458
12644460 14 18260827060354363322
12788726 201 17059505002047033793
128620 24 17385724690407290772
13140716 1 18264499557760559337
13224815 77 18408318891198213202
13675066 3 17749393654488776519
14790565 3 18338806709892665688
15163728 17 15481289097577292713
15183329 4 18408605830407435614
15196674 1 18337388339818468438
15209289 33 18341332270467662817
15209294 21 18059584555192331817
15309172 13 18409451371427638915
15536298 74 18341610425830279326
15788980 27 17749105603943632888
16945 1 18265320738190372627
17349148 13 18114176445825312880
1813 80 17530976782159466655
18186145 218 18409161126111612646
19489759 90 15410896249631894657
19591789 44 18193273216009210722
200 152 17918273168974754922
21033648 29 17968079933063946356
21267235 1 18338240469814837151
21623110 236 18263368155990106261
23402539 116 18410566319162361766
23402655 69 18201721773563375622
23559900 14 18341325700027887232
335352 9 18410007719541319564
34934 24 18335695014618288215
350125 39 18408603674022772468
3545911 37 18408602569419241710
3680242 22 18335416829913620042
4214541 1 18412824715549947695
474 4 18408605889666299408
5104073 3 18339077194179428906
542803 24 17561084709247609168
59755656 215 18335983078396721054
633830 44 18202282537272954908
9709674 26 18410014338397756278

> <PUBCHEM_SHAPE_MULTIPOLES>
441.01
10.64
2.03
1.22
7.18
0.55
-0.05
-1.94
-1.01
0.21
-0.15
-1.94
-0.33
-0.49

> <PUBCHEM_SHAPE_SELFOVERLAP>
961.464

> <PUBCHEM_SHAPE_VOLUME>
238.8

> <PUBCHEM_COORDINATE_TYPE>
2
5
10

> <Energy>
61.5647

> <minimizedAffinity>
24.61763

> <CNNscore>
0.1279769987

> <CNNaffinity>
5.5236492157

> <CNN_VS>
0.7069000602

> <CNNaffinity_variance>
0.7368304729

$$$$
