7184


 15 15  0  0  0  0  0  0  0  0999 V2000
   -4.3611   -4.4657   17.4310 O   0  0  0  0  0  0  0  0  0  0  0  0
   -6.1092   -4.2543   13.6849 C   0  0  0  0  0  0  0  0  0  0  0  0
   -6.7624   -3.7013   14.7932 C   0  0  0  0  0  0  0  0  0  0  0  0
   -4.8742   -4.8904   13.8394 C   0  0  0  0  0  0  0  0  0  0  0  0
   -6.1649   -3.7731   16.0536 C   0  0  0  0  0  0  0  0  0  0  0  0
   -4.2826   -4.9609   15.0954 C   0  0  0  0  0  0  0  0  0  0  0  0
   -4.9300   -4.4003   16.1975 C   0  0  0  0  0  0  0  0  0  0  0  0
   -4.7982   -4.0886   18.1691 H   0  0  0  0  0  0  0  0  0  0  0  0
   -6.3137   -4.7596   11.3700 O   0  0  0  0  0  0  0  0  0  0  0  0
   -6.7477   -4.1868   12.3564 C   0  0  0  0  0  0  0  0  0  0  0  0
   -7.8710   -3.4283   12.4299 O   0  0  0  0  0  0  0  0  0  0  0  0
   -8.5426   -3.2241   11.1813 C   0  0  0  0  0  0  0  0  0  0  0  0
   -8.7318   -1.7229   10.9791 C   0  0  0  0  0  0  0  0  0  0  0  0
   -9.2036   -1.0407   12.2607 C   0  0  0  0  0  0  0  0  0  0  0  0
  -10.6541   -1.3749   12.5692 C   0  0  0  0  0  0  0  0  0  0  0  0
 11 12  1  0
 11 10  1  0
  9 10  2  0
  1  7  1  0
  1  8  1  0
 13 14  1  0
 13 12  1  0
 14 15  1  0
  2 10  1  0
  2  3  2  0
  2  4  1  0
  3  5  1  0
  4  6  2  0
  5  7  2  0
  6  7  1  0
M  END
> <PUBCHEM_COMPOUND_CID>
7184

> <PUBCHEM_CONFORMER_RMSD>
0.6

> <PUBCHEM_CONFORMER_DIVERSEORDER>
1
44
15
20
41
3
43
64
40
47
74
50
4
6
22
69
55
77
16
75
28
26
73
53
11
32
49
58
67
63
62
24
65
27
19
38
12
48
76
25
57
10
31
17
42
34
68
51
9
23
8
14
21
33
18
30
5
66
70
2
56
45
39
37
46
35
60
36
52
59
54
29
71
72
61
13
7

> <PUBCHEM_MMFF94_PARTIAL_CHARGES>
16
1 -0.43
10 -0.15
11 -0.15
12 -0.15
13 -0.15
14 0.08
2 -0.57
24 0.15
25 0.15
26 0.15
27 0.15
28 0.45
3 -0.53
6 0.28
8 0.09
9 0.63

> <PUBCHEM_EFFECTIVE_ROTOR_COUNT>
5

> <PUBCHEM_PHARMACOPHORE_FEATURES>
4
1 2 acceptor
1 3 donor
1 7 hydrophobe
6 8 10 11 12 13 14 rings

> <PUBCHEM_HEAVY_ATOM_COUNT>
14

> <PUBCHEM_ATOM_DEF_STEREO_COUNT>
0

> <PUBCHEM_ATOM_UDEF_STEREO_COUNT>
0

> <PUBCHEM_BOND_DEF_STEREO_COUNT>
0

> <PUBCHEM_BOND_UDEF_STEREO_COUNT>
0

> <PUBCHEM_ISOTOPIC_ATOM_COUNT>
0

> <PUBCHEM_COMPONENT_COUNT>
1

> <PUBCHEM_CACTVS_TAUTO_COUNT>
3

> <PUBCHEM_CONFORMER_ID>
00001C1000000001

> <PUBCHEM_MMFF94_ENERGY>
26.8162

> <PUBCHEM_FEATURE_SELFOVERLAP>
20.297

> <PUBCHEM_SHAPE_FINGERPRINT>
100836 57 10159698014692119138
10465860 250 17561082501386551480
10968037 39 18334860532716625766
11046707 91 18409446968869733128
12032990 46 18409167722807014732
12251169 10 18060418027818494140
13167823 11 18408602527187214402
13288520 33 18409730651148371639
13551218 46 18270963440792261598
13690532 89 18409730694483049495
13862211 1 18342737464162399199
14252887 29 17989215824084205230
17804303 29 18273497883401759577
17834072 33 18410577323021717172
1813 80 17968106291699631366
18186145 218 14923950067535008876
200 152 17530965761531918920
20281475 54 18337672035103360796
20767249 213 10735876175026745610
20828058 44 18273214175553485034
21267235 1 18410019844213228018
22485316 2 18408601440280660184
2297311 6 18130235869953600908
23402539 116 17846774109970031213
23463225 33 18411140233692529510
23559900 14 18270389602695558633
351380 180 10665231458300457486
351380 3 18259982652836299658
42 15 18342740719346176002
4214541 1 18340769252190604880
5104073 3 18271533095046590721
559249 180 18335415712557464698
7364860 26 18126566957732624024
83771 10 18407476665592062532

> <PUBCHEM_SHAPE_MULTIPOLES>
270.51
10.85
1.64
0.68
12.98
0.32
0
-5.61
1.62
-0.51
-0.11
-0.08
0
-0.42

> <PUBCHEM_SHAPE_SELFOVERLAP>
550.017

> <PUBCHEM_SHAPE_VOLUME>
158.1

> <PUBCHEM_COORDINATE_TYPE>
2
5
10

> <Energy>
17.0404

> <minimizedAffinity>
-6.54980

> <CNNscore>
0.9136202335

> <CNNaffinity>
5.3865942955

> <CNN_VS>
4.9213013649

> <CNNaffinity_variance>
0.0803820938

$$$$
7184


 15 15  0  0  0  0  0  0  0  0999 V2000
   -4.2071   -4.2636   17.4131 O   0  0  0  0  0  0  0  0  0  0  0  0
   -6.1737   -4.3648   13.7721 C   0  0  0  0  0  0  0  0  0  0  0  0
   -4.8865   -4.9040   13.8865 C   0  0  0  0  0  0  0  0  0  0  0  0
   -6.7937   -3.7794   14.8796 C   0  0  0  0  0  0  0  0  0  0  0  0
   -4.2304   -4.8697   15.1190 C   0  0  0  0  0  0  0  0  0  0  0  0
   -6.1376   -3.7460   16.1048 C   0  0  0  0  0  0  0  0  0  0  0  0
   -4.8587   -4.2930   16.2197 C   0  0  0  0  0  0  0  0  0  0  0  0
   -3.3485   -4.6315   17.4872 H   0  0  0  0  0  0  0  0  0  0  0  0
   -6.7777   -5.3229   11.6810 O   0  0  0  0  0  0  0  0  0  0  0  0
   -6.8602   -4.3925   12.4664 C   0  0  0  0  0  0  0  0  0  0  0  0
   -7.5905   -3.2586   12.3127 O   0  0  0  0  0  0  0  0  0  0  0  0
   -8.3543   -3.1936   11.1027 C   0  0  0  0  0  0  0  0  0  0  0  0
   -8.7549   -1.7396   10.8668 C   0  0  0  0  0  0  0  0  0  0  0  0
   -9.1951   -1.0630   12.1625 C   0  0  0  0  0  0  0  0  0  0  0  0
  -10.6136   -1.4556   12.5428 C   0  0  0  0  0  0  0  0  0  0  0  0
 11 12  1  0
 11 10  1  0
  9 10  2  0
  1  7  1  0
  1  8  1  0
 13 14  1  0
 13 12  1  0
 14 15  1  0
  2 10  1  0
  2  3  2  0
  2  4  1  0
  3  5  1  0
  4  6  2  0
  5  7  2  0
  6  7  1  0
M  END
> <PUBCHEM_COMPOUND_CID>
7184

> <PUBCHEM_CONFORMER_RMSD>
0.6

> <PUBCHEM_CONFORMER_DIVERSEORDER>
1
44
15
20
41
3
43
64
40
47
74
50
4
6
22
69
55
77
16
75
28
26
73
53
11
32
49
58
67
63
62
24
65
27
19
38
12
48
76
25
57
10
31
17
42
34
68
51
9
23
8
14
21
33
18
30
5
66
70
2
56
45
39
37
46
35
60
36
52
59
54
29
71
72
61
13
7

> <PUBCHEM_MMFF94_PARTIAL_CHARGES>
16
1 -0.43
10 -0.15
11 -0.15
12 -0.15
13 -0.15
14 0.08
2 -0.57
24 0.15
25 0.15
26 0.15
27 0.15
28 0.45
3 -0.53
6 0.28
8 0.09
9 0.63

> <PUBCHEM_EFFECTIVE_ROTOR_COUNT>
5

> <PUBCHEM_PHARMACOPHORE_FEATURES>
4
1 2 acceptor
1 3 donor
1 7 hydrophobe
6 8 10 11 12 13 14 rings

> <PUBCHEM_HEAVY_ATOM_COUNT>
14

> <PUBCHEM_ATOM_DEF_STEREO_COUNT>
0

> <PUBCHEM_ATOM_UDEF_STEREO_COUNT>
0

> <PUBCHEM_BOND_DEF_STEREO_COUNT>
0

> <PUBCHEM_BOND_UDEF_STEREO_COUNT>
0

> <PUBCHEM_ISOTOPIC_ATOM_COUNT>
0

> <PUBCHEM_COMPONENT_COUNT>
1

> <PUBCHEM_CACTVS_TAUTO_COUNT>
3

> <PUBCHEM_CONFORMER_ID>
00001C1000000001

> <PUBCHEM_MMFF94_ENERGY>
26.8162

> <PUBCHEM_FEATURE_SELFOVERLAP>
20.297

> <PUBCHEM_SHAPE_FINGERPRINT>
100836 57 10159698014692119138
10465860 250 17561082501386551480
10968037 39 18334860532716625766
11046707 91 18409446968869733128
12032990 46 18409167722807014732
12251169 10 18060418027818494140
13167823 11 18408602527187214402
13288520 33 18409730651148371639
13551218 46 18270963440792261598
13690532 89 18409730694483049495
13862211 1 18342737464162399199
14252887 29 17989215824084205230
17804303 29 18273497883401759577
17834072 33 18410577323021717172
1813 80 17968106291699631366
18186145 218 14923950067535008876
200 152 17530965761531918920
20281475 54 18337672035103360796
20767249 213 10735876175026745610
20828058 44 18273214175553485034
21267235 1 18410019844213228018
22485316 2 18408601440280660184
2297311 6 18130235869953600908
23402539 116 17846774109970031213
23463225 33 18411140233692529510
23559900 14 18270389602695558633
351380 180 10665231458300457486
351380 3 18259982652836299658
42 15 18342740719346176002
4214541 1 18340769252190604880
5104073 3 18271533095046590721
559249 180 18335415712557464698
7364860 26 18126566957732624024
83771 10 18407476665592062532

> <PUBCHEM_SHAPE_MULTIPOLES>
270.51
10.85
1.64
0.68
12.98
0.32
0
-5.61
1.62
-0.51
-0.11
-0.08
0
-0.42

> <PUBCHEM_SHAPE_SELFOVERLAP>
550.017

> <PUBCHEM_SHAPE_VOLUME>
158.1

> <PUBCHEM_COORDINATE_TYPE>
2
5
10

> <Energy>
17.0404

> <minimizedAffinity>
-6.56398

> <CNNscore>
0.9135901332

> <CNNaffinity>
5.4219536781

> <CNN_VS>
4.9534435272

> <CNNaffinity_variance>
0.0830107555

$$$$
7184


 15 15  0  0  0  0  0  0  0  0999 V2000
   -4.6895   -4.8217   17.5451 O   0  0  0  0  0  0  0  0  0  0  0  0
   -6.4461   -4.2342   13.8432 C   0  0  0  0  0  0  0  0  0  0  0  0
   -5.0779   -4.5188   13.9304 C   0  0  0  0  0  0  0  0  0  0  0  0
   -7.2206   -4.1339   15.0025 C   0  0  0  0  0  0  0  0  0  0  0  0
   -4.4926   -4.7196   15.1825 C   0  0  0  0  0  0  0  0  0  0  0  0
   -6.6349   -4.3333   16.2474 C   0  0  0  0  0  0  0  0  0  0  0  0
   -5.2730   -4.6270   16.3321 C   0  0  0  0  0  0  0  0  0  0  0  0
   -3.7751   -5.0187   17.5988 H   0  0  0  0  0  0  0  0  0  0  0  0
   -8.1329   -3.4535   12.3597 O   0  0  0  0  0  0  0  0  0  0  0  0
   -7.0597   -4.0118   12.5199 C   0  0  0  0  0  0  0  0  0  0  0  0
   -6.2395   -4.4942   11.5517 O   0  0  0  0  0  0  0  0  0  0  0  0
   -6.8947   -5.2603   10.5341 C   0  0  0  0  0  0  0  0  0  0  0  0
   -6.9554   -4.4161    9.2637 C   0  0  0  0  0  0  0  0  0  0  0  0
   -8.1155   -4.8387    8.3659 C   0  0  0  0  0  0  0  0  0  0  0  0
   -8.3298   -6.3433    8.4023 C   0  0  0  0  0  0  0  0  0  0  0  0
 11 12  1  0
 11 10  1  0
  9 10  2  0
  1  7  1  0
  1  8  1  0
 13 14  1  0
 13 12  1  0
 14 15  1  0
  2 10  1  0
  2  3  2  0
  2  4  1  0
  3  5  1  0
  4  6  2  0
  5  7  2  0
  6  7  1  0
M  END
> <PUBCHEM_COMPOUND_CID>
7184

> <PUBCHEM_CONFORMER_RMSD>
0.6

> <PUBCHEM_CONFORMER_DIVERSEORDER>
1
44
15
20
41
3
43
64
40
47
74
50
4
6
22
69
55
77
16
75
28
26
73
53
11
32
49
58
67
63
62
24
65
27
19
38
12
48
76
25
57
10
31
17
42
34
68
51
9
23
8
14
21
33
18
30
5
66
70
2
56
45
39
37
46
35
60
36
52
59
54
29
71
72
61
13
7

> <PUBCHEM_MMFF94_PARTIAL_CHARGES>
16
1 -0.43
10 -0.15
11 -0.15
12 -0.15
13 -0.15
14 0.08
2 -0.57
24 0.15
25 0.15
26 0.15
27 0.15
28 0.45
3 -0.53
6 0.28
8 0.09
9 0.63

> <PUBCHEM_EFFECTIVE_ROTOR_COUNT>
5

> <PUBCHEM_PHARMACOPHORE_FEATURES>
4
1 2 acceptor
1 3 donor
1 7 hydrophobe
6 8 10 11 12 13 14 rings

> <PUBCHEM_HEAVY_ATOM_COUNT>
14

> <PUBCHEM_ATOM_DEF_STEREO_COUNT>
0

> <PUBCHEM_ATOM_UDEF_STEREO_COUNT>
0

> <PUBCHEM_BOND_DEF_STEREO_COUNT>
0

> <PUBCHEM_BOND_UDEF_STEREO_COUNT>
0

> <PUBCHEM_ISOTOPIC_ATOM_COUNT>
0

> <PUBCHEM_COMPONENT_COUNT>
1

> <PUBCHEM_CACTVS_TAUTO_COUNT>
3

> <PUBCHEM_CONFORMER_ID>
00001C1000000001

> <PUBCHEM_MMFF94_ENERGY>
26.8162

> <PUBCHEM_FEATURE_SELFOVERLAP>
20.297

> <PUBCHEM_SHAPE_FINGERPRINT>
100836 57 10159698014692119138
10465860 250 17561082501386551480
10968037 39 18334860532716625766
11046707 91 18409446968869733128
12032990 46 18409167722807014732
12251169 10 18060418027818494140
13167823 11 18408602527187214402
13288520 33 18409730651148371639
13551218 46 18270963440792261598
13690532 89 18409730694483049495
13862211 1 18342737464162399199
14252887 29 17989215824084205230
17804303 29 18273497883401759577
17834072 33 18410577323021717172
1813 80 17968106291699631366
18186145 218 14923950067535008876
200 152 17530965761531918920
20281475 54 18337672035103360796
20767249 213 10735876175026745610
20828058 44 18273214175553485034
21267235 1 18410019844213228018
22485316 2 18408601440280660184
2297311 6 18130235869953600908
23402539 116 17846774109970031213
23463225 33 18411140233692529510
23559900 14 18270389602695558633
351380 180 10665231458300457486
351380 3 18259982652836299658
42 15 18342740719346176002
4214541 1 18340769252190604880
5104073 3 18271533095046590721
559249 180 18335415712557464698
7364860 26 18126566957732624024
83771 10 18407476665592062532

> <PUBCHEM_SHAPE_MULTIPOLES>
270.51
10.85
1.64
0.68
12.98
0.32
0
-5.61
1.62
-0.51
-0.11
-0.08
0
-0.42

> <PUBCHEM_SHAPE_SELFOVERLAP>
550.017

> <PUBCHEM_SHAPE_VOLUME>
158.1

> <PUBCHEM_COORDINATE_TYPE>
2
5
10

> <Energy>
17.0404

> <minimizedAffinity>
-6.07240

> <CNNscore>
0.9086945057

> <CNNaffinity>
5.3342385292

> <CNN_VS>
4.8471932411

> <CNNaffinity_variance>
0.2816981375

$$$$
7184


 15 15  0  0  0  0  0  0  0  0999 V2000
   -4.0683   -4.2999   17.3153 O   0  0  0  0  0  0  0  0  0  0  0  0
   -6.3418   -4.4059   13.8578 C   0  0  0  0  0  0  0  0  0  0  0  0
   -6.8727   -3.8466   15.0266 C   0  0  0  0  0  0  0  0  0  0  0  0
   -5.0509   -4.9418   13.8561 C   0  0  0  0  0  0  0  0  0  0  0  0
   -6.0985   -3.8108   16.1885 C   0  0  0  0  0  0  0  0  0  0  0  0
   -4.2832   -4.9055   15.0145 C   0  0  0  0  0  0  0  0  0  0  0  0
   -4.8099   -4.3385   16.1760 C   0  0  0  0  0  0  0  0  0  0  0  0
   -4.4246   -3.9187   18.0936 H   0  0  0  0  0  0  0  0  0  0  0  0
   -8.3853   -4.4945   12.6447 O   0  0  0  0  0  0  0  0  0  0  0  0
   -7.1657   -4.4523   12.6347 C   0  0  0  0  0  0  0  0  0  0  0  0
   -6.3605   -4.4139   11.5425 O   0  0  0  0  0  0  0  0  0  0  0  0
   -6.9198   -4.9998   10.3611 C   0  0  0  0  0  0  0  0  0  0  0  0
   -7.0760   -3.9033    9.3106 C   0  0  0  0  0  0  0  0  0  0  0  0
   -8.4999   -3.3537    9.2828 C   0  0  0  0  0  0  0  0  0  0  0  0
   -8.6009   -2.0281   10.0200 C   0  0  0  0  0  0  0  0  0  0  0  0
 11 12  1  0
 11 10  1  0
  9 10  2  0
  1  7  1  0
  1  8  1  0
 13 14  1  0
 13 12  1  0
 14 15  1  0
  2 10  1  0
  2  3  2  0
  2  4  1  0
  3  5  1  0
  4  6  2  0
  5  7  2  0
  6  7  1  0
M  END
> <PUBCHEM_COMPOUND_CID>
7184

> <PUBCHEM_CONFORMER_RMSD>
0.6

> <PUBCHEM_CONFORMER_DIVERSEORDER>
1
44
15
20
41
3
43
64
40
47
74
50
4
6
22
69
55
77
16
75
28
26
73
53
11
32
49
58
67
63
62
24
65
27
19
38
12
48
76
25
57
10
31
17
42
34
68
51
9
23
8
14
21
33
18
30
5
66
70
2
56
45
39
37
46
35
60
36
52
59
54
29
71
72
61
13
7

> <PUBCHEM_MMFF94_PARTIAL_CHARGES>
16
1 -0.43
10 -0.15
11 -0.15
12 -0.15
13 -0.15
14 0.08
2 -0.57
24 0.15
25 0.15
26 0.15
27 0.15
28 0.45
3 -0.53
6 0.28
8 0.09
9 0.63

> <PUBCHEM_EFFECTIVE_ROTOR_COUNT>
5

> <PUBCHEM_PHARMACOPHORE_FEATURES>
4
1 2 acceptor
1 3 donor
1 7 hydrophobe
6 8 10 11 12 13 14 rings

> <PUBCHEM_HEAVY_ATOM_COUNT>
14

> <PUBCHEM_ATOM_DEF_STEREO_COUNT>
0

> <PUBCHEM_ATOM_UDEF_STEREO_COUNT>
0

> <PUBCHEM_BOND_DEF_STEREO_COUNT>
0

> <PUBCHEM_BOND_UDEF_STEREO_COUNT>
0

> <PUBCHEM_ISOTOPIC_ATOM_COUNT>
0

> <PUBCHEM_COMPONENT_COUNT>
1

> <PUBCHEM_CACTVS_TAUTO_COUNT>
3

> <PUBCHEM_CONFORMER_ID>
00001C1000000001

> <PUBCHEM_MMFF94_ENERGY>
26.8162

> <PUBCHEM_FEATURE_SELFOVERLAP>
20.297

> <PUBCHEM_SHAPE_FINGERPRINT>
100836 57 10159698014692119138
10465860 250 17561082501386551480
10968037 39 18334860532716625766
11046707 91 18409446968869733128
12032990 46 18409167722807014732
12251169 10 18060418027818494140
13167823 11 18408602527187214402
13288520 33 18409730651148371639
13551218 46 18270963440792261598
13690532 89 18409730694483049495
13862211 1 18342737464162399199
14252887 29 17989215824084205230
17804303 29 18273497883401759577
17834072 33 18410577323021717172
1813 80 17968106291699631366
18186145 218 14923950067535008876
200 152 17530965761531918920
20281475 54 18337672035103360796
20767249 213 10735876175026745610
20828058 44 18273214175553485034
21267235 1 18410019844213228018
22485316 2 18408601440280660184
2297311 6 18130235869953600908
23402539 116 17846774109970031213
23463225 33 18411140233692529510
23559900 14 18270389602695558633
351380 180 10665231458300457486
351380 3 18259982652836299658
42 15 18342740719346176002
4214541 1 18340769252190604880
5104073 3 18271533095046590721
559249 180 18335415712557464698
7364860 26 18126566957732624024
83771 10 18407476665592062532

> <PUBCHEM_SHAPE_MULTIPOLES>
270.51
10.85
1.64
0.68
12.98
0.32
0
-5.61
1.62
-0.51
-0.11
-0.08
0
-0.42

> <PUBCHEM_SHAPE_SELFOVERLAP>
550.017

> <PUBCHEM_SHAPE_VOLUME>
158.1

> <PUBCHEM_COORDINATE_TYPE>
2
5
10

> <Energy>
17.0404

> <minimizedAffinity>
-6.31797

> <CNNscore>
0.8952312469

> <CNNaffinity>
5.6890354156

> <CNN_VS>
5.0930023193

> <CNNaffinity_variance>
0.3445000947

$$$$
7184


 15 15  0  0  0  0  0  0  0  0999 V2000
   -3.5924   -4.6428   16.8833 O   0  0  0  0  0  0  0  0  0  0  0  0
   -6.2946   -4.0215   13.8097 C   0  0  0  0  0  0  0  0  0  0  0  0
   -5.0347   -4.5664   13.5333 C   0  0  0  0  0  0  0  0  0  0  0  0
   -6.6401   -3.6730   15.1185 C   0  0  0  0  0  0  0  0  0  0  0  0
   -4.1293   -4.7767   14.5758 C   0  0  0  0  0  0  0  0  0  0  0  0
   -5.7364   -3.8828   16.1538 C   0  0  0  0  0  0  0  0  0  0  0  0
   -4.4848   -4.4355   15.8782 C   0  0  0  0  0  0  0  0  0  0  0  0
   -2.7528   -5.0140   16.6952 H   0  0  0  0  0  0  0  0  0  0  0  0
   -7.8785   -2.7564   12.5663 O   0  0  0  0  0  0  0  0  0  0  0  0
   -7.2450   -3.7901   12.7051 C   0  0  0  0  0  0  0  0  0  0  0  0
   -7.2678   -4.8755   11.8902 O   0  0  0  0  0  0  0  0  0  0  0  0
   -7.0849   -4.5880   10.4989 C   0  0  0  0  0  0  0  0  0  0  0  0
   -6.6304   -5.8675    9.8013 C   0  0  0  0  0  0  0  0  0  0  0  0
   -6.1182   -6.8994   10.8029 C   0  0  0  0  0  0  0  0  0  0  0  0
   -6.8336   -8.2316   10.6465 C   0  0  0  0  0  0  0  0  0  0  0  0
 11 12  1  0
 11 10  1  0
  9 10  2  0
  1  7  1  0
  1  8  1  0
 13 14  1  0
 13 12  1  0
 14 15  1  0
  2 10  1  0
  2  3  2  0
  2  4  1  0
  3  5  1  0
  4  6  2  0
  5  7  2  0
  6  7  1  0
M  END
> <PUBCHEM_COMPOUND_CID>
7184

> <PUBCHEM_CONFORMER_RMSD>
0.6

> <PUBCHEM_CONFORMER_DIVERSEORDER>
1
44
15
20
41
3
43
64
40
47
74
50
4
6
22
69
55
77
16
75
28
26
73
53
11
32
49
58
67
63
62
24
65
27
19
38
12
48
76
25
57
10
31
17
42
34
68
51
9
23
8
14
21
33
18
30
5
66
70
2
56
45
39
37
46
35
60
36
52
59
54
29
71
72
61
13
7

> <PUBCHEM_MMFF94_PARTIAL_CHARGES>
16
1 -0.43
10 -0.15
11 -0.15
12 -0.15
13 -0.15
14 0.08
2 -0.57
24 0.15
25 0.15
26 0.15
27 0.15
28 0.45
3 -0.53
6 0.28
8 0.09
9 0.63

> <PUBCHEM_EFFECTIVE_ROTOR_COUNT>
5

> <PUBCHEM_PHARMACOPHORE_FEATURES>
4
1 2 acceptor
1 3 donor
1 7 hydrophobe
6 8 10 11 12 13 14 rings

> <PUBCHEM_HEAVY_ATOM_COUNT>
14

> <PUBCHEM_ATOM_DEF_STEREO_COUNT>
0

> <PUBCHEM_ATOM_UDEF_STEREO_COUNT>
0

> <PUBCHEM_BOND_DEF_STEREO_COUNT>
0

> <PUBCHEM_BOND_UDEF_STEREO_COUNT>
0

> <PUBCHEM_ISOTOPIC_ATOM_COUNT>
0

> <PUBCHEM_COMPONENT_COUNT>
1

> <PUBCHEM_CACTVS_TAUTO_COUNT>
3

> <PUBCHEM_CONFORMER_ID>
00001C1000000001

> <PUBCHEM_MMFF94_ENERGY>
26.8162

> <PUBCHEM_FEATURE_SELFOVERLAP>
20.297

> <PUBCHEM_SHAPE_FINGERPRINT>
100836 57 10159698014692119138
10465860 250 17561082501386551480
10968037 39 18334860532716625766
11046707 91 18409446968869733128
12032990 46 18409167722807014732
12251169 10 18060418027818494140
13167823 11 18408602527187214402
13288520 33 18409730651148371639
13551218 46 18270963440792261598
13690532 89 18409730694483049495
13862211 1 18342737464162399199
14252887 29 17989215824084205230
17804303 29 18273497883401759577
17834072 33 18410577323021717172
1813 80 17968106291699631366
18186145 218 14923950067535008876
200 152 17530965761531918920
20281475 54 18337672035103360796
20767249 213 10735876175026745610
20828058 44 18273214175553485034
21267235 1 18410019844213228018
22485316 2 18408601440280660184
2297311 6 18130235869953600908
23402539 116 17846774109970031213
23463225 33 18411140233692529510
23559900 14 18270389602695558633
351380 180 10665231458300457486
351380 3 18259982652836299658
42 15 18342740719346176002
4214541 1 18340769252190604880
5104073 3 18271533095046590721
559249 180 18335415712557464698
7364860 26 18126566957732624024
83771 10 18407476665592062532

> <PUBCHEM_SHAPE_MULTIPOLES>
270.51
10.85
1.64
0.68
12.98
0.32
0
-5.61
1.62
-0.51
-0.11
-0.08
0
-0.42

> <PUBCHEM_SHAPE_SELFOVERLAP>
550.017

> <PUBCHEM_SHAPE_VOLUME>
158.1

> <PUBCHEM_COORDINATE_TYPE>
2
5
10

> <Energy>
17.0404

> <minimizedAffinity>
-6.16135

> <CNNscore>
0.8909692168

> <CNNaffinity>
5.4141869545

> <CNN_VS>
4.8238739967

> <CNNaffinity_variance>
0.2519263625

$$$$
7184


 15 15  0  0  0  0  0  0  0  0999 V2000
   -5.0298   -5.1073   17.7698 O   0  0  0  0  0  0  0  0  0  0  0  0
   -6.8847   -4.1242   14.2023 C   0  0  0  0  0  0  0  0  0  0  0  0
   -7.6537   -4.3553   15.3494 C   0  0  0  0  0  0  0  0  0  0  0  0
   -5.4924   -4.2373   14.2523 C   0  0  0  0  0  0  0  0  0  0  0  0
   -7.0209   -4.6830   16.5506 C   0  0  0  0  0  0  0  0  0  0  0  0
   -4.8656   -4.5645   15.4492 C   0  0  0  0  0  0  0  0  0  0  0  0
   -5.6327   -4.7845   16.5943 C   0  0  0  0  0  0  0  0  0  0  0  0
   -5.5474   -5.2545   18.5369 H   0  0  0  0  0  0  0  0  0  0  0  0
   -8.6947   -3.3539   12.8657 O   0  0  0  0  0  0  0  0  0  0  0  0
   -7.5564   -3.7890   12.9321 C   0  0  0  0  0  0  0  0  0  0  0  0
   -6.7090   -4.0155   11.8961 O   0  0  0  0  0  0  0  0  0  0  0  0
   -7.2261   -4.8722   10.8713 C   0  0  0  0  0  0  0  0  0  0  0  0
   -6.1277   -5.8522   10.4668 C   0  0  0  0  0  0  0  0  0  0  0  0
   -6.1418   -7.1016   11.3438 C   0  0  0  0  0  0  0  0  0  0  0  0
   -6.8896   -8.2440   10.6754 C   0  0  0  0  0  0  0  0  0  0  0  0
 11 12  1  0
 11 10  1  0
  9 10  2  0
  1  7  1  0
  1  8  1  0
 13 14  1  0
 13 12  1  0
 14 15  1  0
  2 10  1  0
  2  3  2  0
  2  4  1  0
  3  5  1  0
  4  6  2  0
  5  7  2  0
  6  7  1  0
M  END
> <PUBCHEM_COMPOUND_CID>
7184

> <PUBCHEM_CONFORMER_RMSD>
0.6

> <PUBCHEM_CONFORMER_DIVERSEORDER>
1
44
15
20
41
3
43
64
40
47
74
50
4
6
22
69
55
77
16
75
28
26
73
53
11
32
49
58
67
63
62
24
65
27
19
38
12
48
76
25
57
10
31
17
42
34
68
51
9
23
8
14
21
33
18
30
5
66
70
2
56
45
39
37
46
35
60
36
52
59
54
29
71
72
61
13
7

> <PUBCHEM_MMFF94_PARTIAL_CHARGES>
16
1 -0.43
10 -0.15
11 -0.15
12 -0.15
13 -0.15
14 0.08
2 -0.57
24 0.15
25 0.15
26 0.15
27 0.15
28 0.45
3 -0.53
6 0.28
8 0.09
9 0.63

> <PUBCHEM_EFFECTIVE_ROTOR_COUNT>
5

> <PUBCHEM_PHARMACOPHORE_FEATURES>
4
1 2 acceptor
1 3 donor
1 7 hydrophobe
6 8 10 11 12 13 14 rings

> <PUBCHEM_HEAVY_ATOM_COUNT>
14

> <PUBCHEM_ATOM_DEF_STEREO_COUNT>
0

> <PUBCHEM_ATOM_UDEF_STEREO_COUNT>
0

> <PUBCHEM_BOND_DEF_STEREO_COUNT>
0

> <PUBCHEM_BOND_UDEF_STEREO_COUNT>
0

> <PUBCHEM_ISOTOPIC_ATOM_COUNT>
0

> <PUBCHEM_COMPONENT_COUNT>
1

> <PUBCHEM_CACTVS_TAUTO_COUNT>
3

> <PUBCHEM_CONFORMER_ID>
00001C1000000001

> <PUBCHEM_MMFF94_ENERGY>
26.8162

> <PUBCHEM_FEATURE_SELFOVERLAP>
20.297

> <PUBCHEM_SHAPE_FINGERPRINT>
100836 57 10159698014692119138
10465860 250 17561082501386551480
10968037 39 18334860532716625766
11046707 91 18409446968869733128
12032990 46 18409167722807014732
12251169 10 18060418027818494140
13167823 11 18408602527187214402
13288520 33 18409730651148371639
13551218 46 18270963440792261598
13690532 89 18409730694483049495
13862211 1 18342737464162399199
14252887 29 17989215824084205230
17804303 29 18273497883401759577
17834072 33 18410577323021717172
1813 80 17968106291699631366
18186145 218 14923950067535008876
200 152 17530965761531918920
20281475 54 18337672035103360796
20767249 213 10735876175026745610
20828058 44 18273214175553485034
21267235 1 18410019844213228018
22485316 2 18408601440280660184
2297311 6 18130235869953600908
23402539 116 17846774109970031213
23463225 33 18411140233692529510
23559900 14 18270389602695558633
351380 180 10665231458300457486
351380 3 18259982652836299658
42 15 18342740719346176002
4214541 1 18340769252190604880
5104073 3 18271533095046590721
559249 180 18335415712557464698
7364860 26 18126566957732624024
83771 10 18407476665592062532

> <PUBCHEM_SHAPE_MULTIPOLES>
270.51
10.85
1.64
0.68
12.98
0.32
0
-5.61
1.62
-0.51
-0.11
-0.08
0
-0.42

> <PUBCHEM_SHAPE_SELFOVERLAP>
550.017

> <PUBCHEM_SHAPE_VOLUME>
158.1

> <PUBCHEM_COORDINATE_TYPE>
2
5
10

> <Energy>
17.0404

> <minimizedAffinity>
-6.12991

> <CNNscore>
0.8899170756

> <CNNaffinity>
5.3439927101

> <CNN_VS>
4.7557106018

> <CNNaffinity_variance>
0.1230555698

$$$$
7184


 15 15  0  0  0  0  0  0  0  0999 V2000
   -3.5194   -4.4652   16.8581 O   0  0  0  0  0  0  0  0  0  0  0  0
   -6.8775   -4.7104   14.4502 C   0  0  0  0  0  0  0  0  0  0  0  0
   -5.6018   -4.8266   13.8847 C   0  0  0  0  0  0  0  0  0  0  0  0
   -7.0228   -4.4980   15.8241 C   0  0  0  0  0  0  0  0  0  0  0  0
   -4.4734   -4.7467   14.7037 C   0  0  0  0  0  0  0  0  0  0  0  0
   -5.8975   -4.4180   16.6365 C   0  0  0  0  0  0  0  0  0  0  0  0
   -4.6270   -4.5442   16.0728 C   0  0  0  0  0  0  0  0  0  0  0  0
   -2.6678   -4.5503   16.4769 H   0  0  0  0  0  0  0  0  0  0  0  0
   -8.3007   -5.7218   12.8356 O   0  0  0  0  0  0  0  0  0  0  0  0
   -8.0676   -4.7843   13.5812 C   0  0  0  0  0  0  0  0  0  0  0  0
   -8.8381   -3.6829   13.7711 O   0  0  0  0  0  0  0  0  0  0  0  0
   -9.8319   -3.4622   12.7634 C   0  0  0  0  0  0  0  0  0  0  0  0
  -10.4049   -2.0604   12.9548 C   0  0  0  0  0  0  0  0  0  0  0  0
   -9.4650   -0.9915   12.4030 C   0  0  0  0  0  0  0  0  0  0  0  0
   -8.8060   -1.4420   11.1094 C   0  0  0  0  0  0  0  0  0  0  0  0
 11 12  1  0
 11 10  1  0
  9 10  2  0
  1  7  1  0
  1  8  1  0
 13 14  1  0
 13 12  1  0
 14 15  1  0
  2 10  1  0
  2  3  2  0
  2  4  1  0
  3  5  1  0
  4  6  2  0
  5  7  2  0
  6  7  1  0
M  END
> <PUBCHEM_COMPOUND_CID>
7184

> <PUBCHEM_CONFORMER_RMSD>
0.6

> <PUBCHEM_CONFORMER_DIVERSEORDER>
1
44
15
20
41
3
43
64
40
47
74
50
4
6
22
69
55
77
16
75
28
26
73
53
11
32
49
58
67
63
62
24
65
27
19
38
12
48
76
25
57
10
31
17
42
34
68
51
9
23
8
14
21
33
18
30
5
66
70
2
56
45
39
37
46
35
60
36
52
59
54
29
71
72
61
13
7

> <PUBCHEM_MMFF94_PARTIAL_CHARGES>
16
1 -0.43
10 -0.15
11 -0.15
12 -0.15
13 -0.15
14 0.08
2 -0.57
24 0.15
25 0.15
26 0.15
27 0.15
28 0.45
3 -0.53
6 0.28
8 0.09
9 0.63

> <PUBCHEM_EFFECTIVE_ROTOR_COUNT>
5

> <PUBCHEM_PHARMACOPHORE_FEATURES>
4
1 2 acceptor
1 3 donor
1 7 hydrophobe
6 8 10 11 12 13 14 rings

> <PUBCHEM_HEAVY_ATOM_COUNT>
14

> <PUBCHEM_ATOM_DEF_STEREO_COUNT>
0

> <PUBCHEM_ATOM_UDEF_STEREO_COUNT>
0

> <PUBCHEM_BOND_DEF_STEREO_COUNT>
0

> <PUBCHEM_BOND_UDEF_STEREO_COUNT>
0

> <PUBCHEM_ISOTOPIC_ATOM_COUNT>
0

> <PUBCHEM_COMPONENT_COUNT>
1

> <PUBCHEM_CACTVS_TAUTO_COUNT>
3

> <PUBCHEM_CONFORMER_ID>
00001C1000000001

> <PUBCHEM_MMFF94_ENERGY>
26.8162

> <PUBCHEM_FEATURE_SELFOVERLAP>
20.297

> <PUBCHEM_SHAPE_FINGERPRINT>
100836 57 10159698014692119138
10465860 250 17561082501386551480
10968037 39 18334860532716625766
11046707 91 18409446968869733128
12032990 46 18409167722807014732
12251169 10 18060418027818494140
13167823 11 18408602527187214402
13288520 33 18409730651148371639
13551218 46 18270963440792261598
13690532 89 18409730694483049495
13862211 1 18342737464162399199
14252887 29 17989215824084205230
17804303 29 18273497883401759577
17834072 33 18410577323021717172
1813 80 17968106291699631366
18186145 218 14923950067535008876
200 152 17530965761531918920
20281475 54 18337672035103360796
20767249 213 10735876175026745610
20828058 44 18273214175553485034
21267235 1 18410019844213228018
22485316 2 18408601440280660184
2297311 6 18130235869953600908
23402539 116 17846774109970031213
23463225 33 18411140233692529510
23559900 14 18270389602695558633
351380 180 10665231458300457486
351380 3 18259982652836299658
42 15 18342740719346176002
4214541 1 18340769252190604880
5104073 3 18271533095046590721
559249 180 18335415712557464698
7364860 26 18126566957732624024
83771 10 18407476665592062532

> <PUBCHEM_SHAPE_MULTIPOLES>
270.51
10.85
1.64
0.68
12.98
0.32
0
-5.61
1.62
-0.51
-0.11
-0.08
0
-0.42

> <PUBCHEM_SHAPE_SELFOVERLAP>
550.017

> <PUBCHEM_SHAPE_VOLUME>
158.1

> <PUBCHEM_COORDINATE_TYPE>
2
5
10

> <Energy>
17.0404

> <minimizedAffinity>
-6.50322

> <CNNscore>
0.8895356059

> <CNNaffinity>
5.2046666145

> <CNN_VS>
4.6297364235

> <CNNaffinity_variance>
0.0830004662

$$$$
7184


 15 15  0  0  0  0  0  0  0  0999 V2000
   -3.5422   -4.5361   16.9656 O   0  0  0  0  0  0  0  0  0  0  0  0
   -6.7949   -4.5368   14.4055 C   0  0  0  0  0  0  0  0  0  0  0  0
   -6.9908   -4.3928   15.7845 C   0  0  0  0  0  0  0  0  0  0  0  0
   -5.5055   -4.6941   13.8893 C   0  0  0  0  0  0  0  0  0  0  0  0
   -5.8884   -4.3897   16.6420 C   0  0  0  0  0  0  0  0  0  0  0  0
   -4.4104   -4.6916   14.7455 C   0  0  0  0  0  0  0  0  0  0  0  0
   -4.6064   -4.5378   16.1188 C   0  0  0  0  0  0  0  0  0  0  0  0
   -3.6769   -4.4327   17.8871 H   0  0  0  0  0  0  0  0  0  0  0  0
   -8.3918   -5.5621   12.9723 O   0  0  0  0  0  0  0  0  0  0  0  0
   -7.9620   -4.5507   13.5029 C   0  0  0  0  0  0  0  0  0  0  0  0
   -8.4674   -3.2955   13.3939 O   0  0  0  0  0  0  0  0  0  0  0  0
   -9.8825   -3.2324   13.1812 C   0  0  0  0  0  0  0  0  0  0  0  0
  -10.1341   -2.5821   11.8233 C   0  0  0  0  0  0  0  0  0  0  0  0
   -9.0150   -1.6129   11.4509 C   0  0  0  0  0  0  0  0  0  0  0  0
   -8.5830   -1.7888   10.0041 C   0  0  0  0  0  0  0  0  0  0  0  0
 11 12  1  0
 11 10  1  0
  9 10  2  0
  1  7  1  0
  1  8  1  0
 13 14  1  0
 13 12  1  0
 14 15  1  0
  2 10  1  0
  2  3  2  0
  2  4  1  0
  3  5  1  0
  4  6  2  0
  5  7  2  0
  6  7  1  0
M  END
> <PUBCHEM_COMPOUND_CID>
7184

> <PUBCHEM_CONFORMER_RMSD>
0.6

> <PUBCHEM_CONFORMER_DIVERSEORDER>
1
44
15
20
41
3
43
64
40
47
74
50
4
6
22
69
55
77
16
75
28
26
73
53
11
32
49
58
67
63
62
24
65
27
19
38
12
48
76
25
57
10
31
17
42
34
68
51
9
23
8
14
21
33
18
30
5
66
70
2
56
45
39
37
46
35
60
36
52
59
54
29
71
72
61
13
7

> <PUBCHEM_MMFF94_PARTIAL_CHARGES>
16
1 -0.43
10 -0.15
11 -0.15
12 -0.15
13 -0.15
14 0.08
2 -0.57
24 0.15
25 0.15
26 0.15
27 0.15
28 0.45
3 -0.53
6 0.28
8 0.09
9 0.63

> <PUBCHEM_EFFECTIVE_ROTOR_COUNT>
5

> <PUBCHEM_PHARMACOPHORE_FEATURES>
4
1 2 acceptor
1 3 donor
1 7 hydrophobe
6 8 10 11 12 13 14 rings

> <PUBCHEM_HEAVY_ATOM_COUNT>
14

> <PUBCHEM_ATOM_DEF_STEREO_COUNT>
0

> <PUBCHEM_ATOM_UDEF_STEREO_COUNT>
0

> <PUBCHEM_BOND_DEF_STEREO_COUNT>
0

> <PUBCHEM_BOND_UDEF_STEREO_COUNT>
0

> <PUBCHEM_ISOTOPIC_ATOM_COUNT>
0

> <PUBCHEM_COMPONENT_COUNT>
1

> <PUBCHEM_CACTVS_TAUTO_COUNT>
3

> <PUBCHEM_CONFORMER_ID>
00001C1000000001

> <PUBCHEM_MMFF94_ENERGY>
26.8162

> <PUBCHEM_FEATURE_SELFOVERLAP>
20.297

> <PUBCHEM_SHAPE_FINGERPRINT>
100836 57 10159698014692119138
10465860 250 17561082501386551480
10968037 39 18334860532716625766
11046707 91 18409446968869733128
12032990 46 18409167722807014732
12251169 10 18060418027818494140
13167823 11 18408602527187214402
13288520 33 18409730651148371639
13551218 46 18270963440792261598
13690532 89 18409730694483049495
13862211 1 18342737464162399199
14252887 29 17989215824084205230
17804303 29 18273497883401759577
17834072 33 18410577323021717172
1813 80 17968106291699631366
18186145 218 14923950067535008876
200 152 17530965761531918920
20281475 54 18337672035103360796
20767249 213 10735876175026745610
20828058 44 18273214175553485034
21267235 1 18410019844213228018
22485316 2 18408601440280660184
2297311 6 18130235869953600908
23402539 116 17846774109970031213
23463225 33 18411140233692529510
23559900 14 18270389602695558633
351380 180 10665231458300457486
351380 3 18259982652836299658
42 15 18342740719346176002
4214541 1 18340769252190604880
5104073 3 18271533095046590721
559249 180 18335415712557464698
7364860 26 18126566957732624024
83771 10 18407476665592062532

> <PUBCHEM_SHAPE_MULTIPOLES>
270.51
10.85
1.64
0.68
12.98
0.32
0
-5.61
1.62
-0.51
-0.11
-0.08
0
-0.42

> <PUBCHEM_SHAPE_SELFOVERLAP>
550.017

> <PUBCHEM_SHAPE_VOLUME>
158.1

> <PUBCHEM_COORDINATE_TYPE>
2
5
10

> <Energy>
17.0404

> <minimizedAffinity>
-6.41250

> <CNNscore>
0.8887158036

> <CNNaffinity>
5.3253064156

> <CNN_VS>
4.7326841354

> <CNNaffinity_variance>
0.1852646917

$$$$
7184


 15 15  0  0  0  0  0  0  0  0999 V2000
   -7.6766   -3.9173   17.1995 O   0  0  0  0  0  0  0  0  0  0  0  0
   -5.9579   -4.7844   13.5350 C   0  0  0  0  0  0  0  0  0  0  0  0
   -7.3519   -4.7569   13.6642 C   0  0  0  0  0  0  0  0  0  0  0  0
   -5.1422   -4.5335   14.6420 C   0  0  0  0  0  0  0  0  0  0  0  0
   -7.9249   -4.4600   14.9028 C   0  0  0  0  0  0  0  0  0  0  0  0
   -5.7156   -4.2392   15.8736 C   0  0  0  0  0  0  0  0  0  0  0  0
   -7.1052   -4.2021   15.9986 C   0  0  0  0  0  0  0  0  0  0  0  0
   -8.6098   -3.8932   17.2803 H   0  0  0  0  0  0  0  0  0  0  0  0
   -4.3912   -5.8457   12.0945 O   0  0  0  0  0  0  0  0  0  0  0  0
   -5.3551   -5.1092   12.2280 C   0  0  0  0  0  0  0  0  0  0  0  0
   -6.0509   -4.4905   11.2402 O   0  0  0  0  0  0  0  0  0  0  0  0
   -7.1926   -5.2128   10.7644 C   0  0  0  0  0  0  0  0  0  0  0  0
   -6.7216   -6.2148    9.7135 C   0  0  0  0  0  0  0  0  0  0  0  0
   -6.9700   -7.6531   10.1607 C   0  0  0  0  0  0  0  0  0  0  0  0
   -7.8317   -7.7075   11.4119 C   0  0  0  0  0  0  0  0  0  0  0  0
 11 12  1  0
 11 10  1  0
  9 10  2  0
  1  7  1  0
  1  8  1  0
 13 14  1  0
 13 12  1  0
 14 15  1  0
  2 10  1  0
  2  3  2  0
  2  4  1  0
  3  5  1  0
  4  6  2  0
  5  7  2  0
  6  7  1  0
M  END
> <PUBCHEM_COMPOUND_CID>
7184

> <PUBCHEM_CONFORMER_RMSD>
0.6

> <PUBCHEM_CONFORMER_DIVERSEORDER>
1
44
15
20
41
3
43
64
40
47
74
50
4
6
22
69
55
77
16
75
28
26
73
53
11
32
49
58
67
63
62
24
65
27
19
38
12
48
76
25
57
10
31
17
42
34
68
51
9
23
8
14
21
33
18
30
5
66
70
2
56
45
39
37
46
35
60
36
52
59
54
29
71
72
61
13
7

> <PUBCHEM_MMFF94_PARTIAL_CHARGES>
16
1 -0.43
10 -0.15
11 -0.15
12 -0.15
13 -0.15
14 0.08
2 -0.57
24 0.15
25 0.15
26 0.15
27 0.15
28 0.45
3 -0.53
6 0.28
8 0.09
9 0.63

> <PUBCHEM_EFFECTIVE_ROTOR_COUNT>
5

> <PUBCHEM_PHARMACOPHORE_FEATURES>
4
1 2 acceptor
1 3 donor
1 7 hydrophobe
6 8 10 11 12 13 14 rings

> <PUBCHEM_HEAVY_ATOM_COUNT>
14

> <PUBCHEM_ATOM_DEF_STEREO_COUNT>
0

> <PUBCHEM_ATOM_UDEF_STEREO_COUNT>
0

> <PUBCHEM_BOND_DEF_STEREO_COUNT>
0

> <PUBCHEM_BOND_UDEF_STEREO_COUNT>
0

> <PUBCHEM_ISOTOPIC_ATOM_COUNT>
0

> <PUBCHEM_COMPONENT_COUNT>
1

> <PUBCHEM_CACTVS_TAUTO_COUNT>
3

> <PUBCHEM_CONFORMER_ID>
00001C1000000001

> <PUBCHEM_MMFF94_ENERGY>
26.8162

> <PUBCHEM_FEATURE_SELFOVERLAP>
20.297

> <PUBCHEM_SHAPE_FINGERPRINT>
100836 57 10159698014692119138
10465860 250 17561082501386551480
10968037 39 18334860532716625766
11046707 91 18409446968869733128
12032990 46 18409167722807014732
12251169 10 18060418027818494140
13167823 11 18408602527187214402
13288520 33 18409730651148371639
13551218 46 18270963440792261598
13690532 89 18409730694483049495
13862211 1 18342737464162399199
14252887 29 17989215824084205230
17804303 29 18273497883401759577
17834072 33 18410577323021717172
1813 80 17968106291699631366
18186145 218 14923950067535008876
200 152 17530965761531918920
20281475 54 18337672035103360796
20767249 213 10735876175026745610
20828058 44 18273214175553485034
21267235 1 18410019844213228018
22485316 2 18408601440280660184
2297311 6 18130235869953600908
23402539 116 17846774109970031213
23463225 33 18411140233692529510
23559900 14 18270389602695558633
351380 180 10665231458300457486
351380 3 18259982652836299658
42 15 18342740719346176002
4214541 1 18340769252190604880
5104073 3 18271533095046590721
559249 180 18335415712557464698
7364860 26 18126566957732624024
83771 10 18407476665592062532

> <PUBCHEM_SHAPE_MULTIPOLES>
270.51
10.85
1.64
0.68
12.98
0.32
0
-5.61
1.62
-0.51
-0.11
-0.08
0
-0.42

> <PUBCHEM_SHAPE_SELFOVERLAP>
550.017

> <PUBCHEM_SHAPE_VOLUME>
158.1

> <PUBCHEM_COORDINATE_TYPE>
2
5
10

> <Energy>
17.0404

> <minimizedAffinity>
-5.89452

> <CNNscore>
0.7318416834

> <CNNaffinity>
4.7294616699

> <CNN_VS>
3.4612171650

> <CNNaffinity_variance>
0.1498479843

$$$$
