
 OpenBabel02122610363D

 28 31  0  0  0  0  0  0  0  0999 V2000
   -1.2290  -10.5730  -26.2460 O   0  0  0  0  0  0  0  0  0  0  0  0
   -0.8040  -11.1460  -25.2220 C   0  0  0  0  0  0  0  0  0  0  0  0
   -1.6020  -11.9130  -24.4610 N   0  0  0  0  0  2  0  0  0  0  0  0
   -1.1500  -12.6780  -23.2950 C   0  0  0  0  0  2  0  0  0  0  0  0
    0.2650  -13.1710  -23.5020 C   0  0  0  0  0  2  0  0  0  0  0  0
    1.1480  -12.0630  -23.9970 C   0  0  0  0  0  0  0  0  0  0  0  0
    2.4950  -12.0300  -23.6370 C   0  0  0  0  0  3  0  0  0  0  0  0
    0.6150  -11.0470  -24.8030 C   0  0  0  0  0  0  0  0  0  0  0  0
    1.4800   -9.9960  -25.2900 C   0  0  0  0  0  0  0  0  0  0  0  0
    1.0010   -8.8750  -26.1900 C   0  0  0  0  0  2  0  0  0  0  0  0
    0.3640   -7.6720  -25.4960 C   0  0  0  0  0  3  0  0  0  0  0  0
    0.1170   -6.5560  -26.5000 C   0  0  0  0  0  1  0  0  0  0  0  0
    1.2140   -7.1880  -24.3300 C   0  0  0  0  0  1  0  0  0  0  0  0
    2.7890   -9.9860  -24.8680 C   0  0  0  0  0  3  0  0  0  0  0  0
    3.3110  -10.9990  -24.0860 C   0  0  0  0  0  0  0  0  0  0  0  0
    4.7110  -10.9590  -23.8160 N   0  0  0  0  0  0  0  0  0  0  0  0
    5.4510   -9.8590  -23.3840 C   0  0  0  0  0  3  0  0  0  0  0  0
    5.5720  -12.0040  -24.0320 C   0  0  0  0  0  0  0  0  0  0  0  0
    5.1930  -13.3430  -24.5760 C   0  0  0  0  0  2  0  0  0  0  0  0
    6.3710  -13.9840  -25.3190 C   0  0  0  0  0  0  0  0  0  0  0  0
    6.6020  -13.2700  -26.6550 C   0  0  0  0  0  1  0  0  0  0  0  0
    6.0580  -15.4570  -25.5860 C   0  0  0  0  0  1  0  0  0  0  0  0
    7.6280  -13.8710  -24.4410 C   0  0  0  0  0  2  0  0  0  0  0  0
    7.9750  -12.4750  -23.9750 C   0  0  0  0  0  0  0  0  0  0  0  0
    9.1450  -12.1110  -23.8890 O   0  0  0  0  0  0  0  0  0  0  0  0
    6.8500  -11.5810  -23.7610 C   0  0  0  0  0  0  0  0  0  0  0  0
    6.7640  -10.2100  -23.3380 C   0  0  0  0  0  0  0  0  0  0  0  0
    7.8920   -9.3200  -22.9210 C   0  0  0  0  0  1  0  0  0  0  0  0
  1  2  2  0  0  0  0
  2  8  1  0  0  0  0
  2  3  1  0  0  0  0
  3  4  1  0  0  0  0
  5  4  1  0  0  0  0
  6  7  1  0  0  0  0
  6  5  1  0  0  0  0
  8  6  2  0  0  0  0
  9 14  2  0  0  0  0
  9  8  1  0  0  0  0
 10 11  1  0  0  0  0
 10  9  1  0  0  0  0
 11 13  1  0  0  0  0
 12 11  1  0  0  0  0
 14 15  1  0  0  0  0
 15 16  1  0  0  0  0
 15  7  2  0  0  0  0
 16 17  1  0  0  0  0
 17 27  2  0  0  0  0
 18 16  1  0  0  0  0
 18 26  2  0  0  0  0
 19 18  1  0  0  0  0
 20 19  1  0  0  0  0
 20 23  1  0  0  0  0
 21 20  1  0  0  0  0
 22 20  1  0  0  0  0
 23 24  1  0  0  0  0
 24 25  2  0  0  0  0
 24 26  1  0  0  0  0
 26 27  1  0  0  0  0
 27 28  1  0  0  0  0
M  END
$$$$
