
 OpenBabel02122610363D

 22 22  0  0  1  0  0  0  0  0999 V2000
   -3.4140    1.6760   10.4860 O   0  0  0  0  0  1  0  0  0  0  0  0
   -3.8400    3.5340    8.5710 O   0  0  0  0  0  1  0  0  0  0  0  0
   -0.8460    7.7830    3.0740 O   0  0  0  0  0  0  0  0  0  0  0  0
   -2.4100    2.3560    9.8170 N   0  0  0  0  0  0  0  0  0  0  0  0
   -2.3930   13.7380    4.7070 N   0  0  0  0  0  0  0  0  0  0  0  0
   -1.0610    9.7700    4.2990 C   0  0  0  0  0  0  0  0  0  0  0  0
   -2.0990   10.2590    3.5110 C   0  0  0  0  0  3  0  0  0  0  0  0
   -2.5450   11.5580    3.6410 C   0  0  0  0  0  3  0  0  0  0  0  0
   -1.9600   12.4400    4.5770 C   0  0  0  0  0  0  0  0  0  0  0  0
   -0.9030   11.9310    5.3630 C   0  0  0  0  0  3  0  0  0  0  0  0
   -0.4690   10.6280    5.2210 C   0  0  0  0  0  3  0  0  0  0  0  0
   -0.6150    8.3630    4.1170 C   0  0  0  0  0  0  0  0  0  0  0  0
    0.1240    7.6150    5.2270 C   0  0  1  0  0  3  0  0  0  0  0  0
   -0.7860    6.6350    5.9130 C   0  0  0  0  0  3  0  0  0  0  0  0
   -0.5850    6.0500    7.1610 C   0  0  0  0  0  0  0  0  0  0  0  0
   -1.6060    5.2100    7.6960 C   0  0  0  0  0  3  0  0  0  0  0  0
   -1.5780    4.2820    8.7310 C   0  0  0  0  0  3  0  0  0  0  0  0
   -2.7140    3.3760    9.0290 C   0  0  0  0  0  0  0  0  0  0  0  0
    1.3390    6.8910    4.6530 C   0  0  0  0  0  1  0  0  0  0  0  0
    0.6160    6.2560    7.9820 C   0  0  0  0  0  1  0  0  0  0  0  0
   -3.6240   14.1840    4.0860 C   0  0  0  0  0  1  0  0  0  0  0  0
   -1.6260   14.7160    5.4540 C   0  0  0  0  0  1  0  0  0  0  0  0
  2 18  1  0  0  0  0
  3 12  2  0  0  0  0
  4  1  1  0  0  0  0
  5 22  1  0  0  0  0
  6 11  1  0  0  0  0
  7  8  1  0  0  0  0
  7  6  2  0  0  0  0
  8  9  2  0  0  0  0
  9  5  1  0  0  0  0
  9 10  1  0  0  0  0
 11 10  2  0  0  0  0
 12  6  1  0  0  0  0
 12 13  1  0  0  0  0
 13 19  1  6  0  0  0
 13 14  1  0  0  0  0
 14 15  2  0  0  0  0
 15 16  1  0  0  0  0
 15 20  1  0  0  0  0
 16 17  2  0  0  0  0
 17 18  1  0  0  0  0
 18  4  2  0  0  0  0
 21  5  1  0  0  0  0
M  END
$$$$
