6623


 19 20  0  0  0  0  0  0  0  0999 V2000
  -11.9944  -11.8390   49.7491 C   0  0  0  0  0  0  0  0  0  0  0  0
  -11.0169  -11.5911   48.5386 C   0  0  0  0  0  0  0  0  0  0  0  0
  -12.1482  -13.4003   49.7842 C   0  0  0  0  0  0  0  0  0  0  0  0
  -17.1241   -9.5435   49.2508 O   0  0  0  0  0  0  0  0  0  0  0  0
  -13.3501  -11.2322   49.6176 C   0  0  0  0  0  0  0  0  0  0  0  0
  -14.4806  -11.9664   49.9756 C   0  0  0  0  0  0  0  0  0  0  0  0
  -13.4876   -9.9302   49.1361 C   0  0  0  0  0  0  0  0  0  0  0  0
  -15.7487  -11.3988   49.8524 C   0  0  0  0  0  0  0  0  0  0  0  0
  -14.7559   -9.3624   49.0128 C   0  0  0  0  0  0  0  0  0  0  0  0
  -15.8865  -10.0967   49.3711 C   0  0  0  0  0  0  0  0  0  0  0  0
  -17.7885  -10.1910   49.5428 H   0  0  0  0  0  0  0  0  0  0  0  0
   -9.1985   -9.9052   54.2517 O   0  0  0  0  0  0  0  0  0  0  0  0
  -11.2186  -11.3027   50.9982 C   0  0  0  0  0  0  0  0  0  0  0  0
  -11.9441  -11.0417   52.1177 C   0  0  0  0  0  0  0  0  0  0  0  0
   -9.8752  -11.1364   50.8735 C   0  0  0  0  0  0  0  0  0  0  0  0
  -11.2527  -10.5635   53.2308 C   0  0  0  0  0  0  0  0  0  0  0  0
   -9.1838  -10.6584   51.9867 C   0  0  0  0  0  0  0  0  0  0  0  0
   -9.8725  -10.3719   53.1653 C   0  0  0  0  0  0  0  0  0  0  0  0
   -9.8306   -9.7610   54.9768 H   0  0  0  0  0  0  0  0  0  0  0  0
  4 10  1  0
  4 11  1  0
 12 18  1  0
 12 19  1  0
  1  5  1  0
  1 13  1  0
  1  2  1  0
  1  3  1  0
  5  6  2  0
  5  7  1  0
 13 14  2  0
 13 15  1  0
  6  8  1  0
 14 16  1  0
  7  9  2  0
 15 17  2  0
  8 10  2  0
 16 18  2  0
  9 10  1  0
 17 18  1  0
M  END
> <PUBCHEM_COMPOUND_CID>
6623

> <PUBCHEM_CONFORMER_RMSD>
0.6

> <PUBCHEM_CONFORMER_DIVERSEORDER>
1
3
2

> <PUBCHEM_MMFF94_PARTIAL_CHARGES>
25
1 -0.53
10 -0.15
11 -0.15
12 -0.15
13 -0.15
14 -0.15
15 -0.15
16 0.08
17 0.08
2 -0.53
24 0.15
25 0.15
26 0.15
27 0.15
28 0.15
29 0.15
3 0.29
30 0.15
31 0.15
32 0.45
33 0.45
4 -0.14
5 -0.14
8 -0.15
9 -0.15

> <PUBCHEM_EFFECTIVE_ROTOR_COUNT>
2

> <PUBCHEM_PHARMACOPHORE_FEATURES>
5
1 1 donor
1 2 donor
3 3 6 7 hydrophobe
6 4 8 10 12 14 16 rings
6 5 9 11 13 15 17 rings

> <PUBCHEM_HEAVY_ATOM_COUNT>
17

> <PUBCHEM_ATOM_DEF_STEREO_COUNT>
0

> <PUBCHEM_ATOM_UDEF_STEREO_COUNT>
0

> <PUBCHEM_BOND_DEF_STEREO_COUNT>
0

> <PUBCHEM_BOND_UDEF_STEREO_COUNT>
0

> <PUBCHEM_ISOTOPIC_ATOM_COUNT>
0

> <PUBCHEM_COMPONENT_COUNT>
1

> <PUBCHEM_CACTVS_TAUTO_COUNT>
3

> <PUBCHEM_CONFORMER_ID>
000019DF00000001

> <PUBCHEM_MMFF94_ENERGY>
64.1206

> <PUBCHEM_FEATURE_SELFOVERLAP>
25.372

> <PUBCHEM_SHAPE_FINGERPRINT>
10465860 228 18265052440146906875
10498660 4 17846494807956907777
10618630 7 8862950471944920352
11046707 91 8574440819802817220
11640471 11 18410569587104953028
12138202 97 17632297942700988494
12251169 10 15719115772587467277
12491281 212 18341893034625719138
12633257 1 15647059291015153984
12788726 201 18049710021441717058
12892183 10 15719384001885322888
13571099 52 18261397711031002503
13764800 53 18340221781019704851
14251764 38 17758668950351880149
14739800 52 17985806350554812304
15061688 2 18410575084673810317
15309172 13 17822005415182549066
15342168 16 18187090559068058613
15375462 189 9295287269996453078
15534591 1 18337673126062282338
15653759 3 15068339003624658237
15775835 57 18410853261110395364
15906896 17 18264490774389428130
16945 1 17917141818369727011
17357779 13 13899614313340361589
1741750 31 18337674225716062138
17804303 29 12829490320433961629
1813 80 17692251833473259110
18186145 218 18334012757179395950
19765921 60 18411697656461014379
19868273 293 17988923409424780430
20291156 8 9223230745321134917
20361792 2 9943803365827786299
204376 136 18186802491163379179
20645476 183 18339358668581405150
20671657 53 12751245791825749096
20871999 31 16988551447065141829
21499 59 18412825772344063143
21524375 3 18410855460138945163
21713013 43 13758065299356720749
21731228 192 17894352193594983955
23184049 59 17894627041684797236
23402539 116 17774993601125170188
23557571 272 16557885966252971863
23559900 14 17561366193283564332
298252 57 18202560691760254914
3472631 163 18202563986327517557
4028521 119 17846780714954732865
4340502 62 18114473262852369283
474 4 18336547123060049707
633830 44 18410010996606913815
7364860 26 17700693965181141591
83771 10 9223230749695054610
94968 8 10663806477749826557
9981440 41 18128808828214612290

> <PUBCHEM_SHAPE_MULTIPOLES>
338.11
7.28
2.04
1.32
0.26
0.87
0
-5.89
0
-0.06
0
0
0.27
-0.69

> <PUBCHEM_SHAPE_SELFOVERLAP>
731.212

> <PUBCHEM_SHAPE_VOLUME>
187.1

> <PUBCHEM_COORDINATE_TYPE>
2
5
10

> <minimizedAffinity>
-8.37153

> <CNNscore>
0.8721666932

> <CNNaffinity>
6.9226436615

> <CNN_VS>
6.0376992226

> <CNNaffinity_variance>
0.6536372304

$$$$
6623


 19 20  0  0  0  0  0  0  0  0999 V2000
  -11.9866  -11.8186   49.7337 C   0  0  0  0  0  0  0  0  0  0  0  0
  -11.0177  -11.5773   48.5149 C   0  0  0  0  0  0  0  0  0  0  0  0
  -12.1364  -13.3800   49.7812 C   0  0  0  0  0  0  0  0  0  0  0  0
  -17.1248   -9.5385   49.2533 O   0  0  0  0  0  0  0  0  0  0  0  0
  -13.3445  -11.2158   49.6069 C   0  0  0  0  0  0  0  0  0  0  0  0
  -14.4706  -11.9491   49.9802 C   0  0  0  0  0  0  0  0  0  0  0  0
  -13.4884   -9.9186   49.1147 C   0  0  0  0  0  0  0  0  0  0  0  0
  -15.7409  -11.3853   49.8614 C   0  0  0  0  0  0  0  0  0  0  0  0
  -14.7588   -9.3546   48.9958 C   0  0  0  0  0  0  0  0  0  0  0  0
  -15.8851  -10.0880   49.3693 C   0  0  0  0  0  0  0  0  0  0  0  0
  -17.7855  -10.1846   49.5563 H   0  0  0  0  0  0  0  0  0  0  0  0
   -9.1640   -9.8471   54.2032 O   0  0  0  0  0  0  0  0  0  0  0  0
  -11.2036  -11.2714   50.9736 C   0  0  0  0  0  0  0  0  0  0  0  0
   -9.8635  -11.0912   50.8347 C   0  0  0  0  0  0  0  0  0  0  0  0
  -11.9202  -11.0160   52.1002 C   0  0  0  0  0  0  0  0  0  0  0  0
   -9.1658  -10.6039   51.9399 C   0  0  0  0  0  0  0  0  0  0  0  0
  -11.2226  -10.5285   53.2054 C   0  0  0  0  0  0  0  0  0  0  0  0
   -9.8453  -10.3225   53.1252 C   0  0  0  0  0  0  0  0  0  0  0  0
   -8.2230   -9.7660   53.9706 H   0  0  0  0  0  0  0  0  0  0  0  0
  4 10  1  0
  4 11  1  0
 12 18  1  0
 12 19  1  0
  1  5  1  0
  1 13  1  0
  1  2  1  0
  1  3  1  0
  5  6  2  0
  5  7  1  0
 13 14  2  0
 13 15  1  0
  6  8  1  0
 14 16  1  0
  7  9  2  0
 15 17  2  0
  8 10  2  0
 16 18  2  0
  9 10  1  0
 17 18  1  0
M  END
> <PUBCHEM_COMPOUND_CID>
6623

> <PUBCHEM_CONFORMER_RMSD>
0.6

> <PUBCHEM_CONFORMER_DIVERSEORDER>
1
3
2

> <PUBCHEM_MMFF94_PARTIAL_CHARGES>
25
1 -0.53
10 -0.15
11 -0.15
12 -0.15
13 -0.15
14 -0.15
15 -0.15
16 0.08
17 0.08
2 -0.53
24 0.15
25 0.15
26 0.15
27 0.15
28 0.15
29 0.15
3 0.29
30 0.15
31 0.15
32 0.45
33 0.45
4 -0.14
5 -0.14
8 -0.15
9 -0.15

> <PUBCHEM_EFFECTIVE_ROTOR_COUNT>
2

> <PUBCHEM_PHARMACOPHORE_FEATURES>
5
1 1 donor
1 2 donor
3 3 6 7 hydrophobe
6 4 8 10 12 14 16 rings
6 5 9 11 13 15 17 rings

> <PUBCHEM_HEAVY_ATOM_COUNT>
17

> <PUBCHEM_ATOM_DEF_STEREO_COUNT>
0

> <PUBCHEM_ATOM_UDEF_STEREO_COUNT>
0

> <PUBCHEM_BOND_DEF_STEREO_COUNT>
0

> <PUBCHEM_BOND_UDEF_STEREO_COUNT>
0

> <PUBCHEM_ISOTOPIC_ATOM_COUNT>
0

> <PUBCHEM_COMPONENT_COUNT>
1

> <PUBCHEM_CACTVS_TAUTO_COUNT>
3

> <PUBCHEM_CONFORMER_ID>
000019DF00000001

> <PUBCHEM_MMFF94_ENERGY>
64.1206

> <PUBCHEM_FEATURE_SELFOVERLAP>
25.372

> <PUBCHEM_SHAPE_FINGERPRINT>
10465860 228 18265052440146906875
10498660 4 17846494807956907777
10618630 7 8862950471944920352
11046707 91 8574440819802817220
11640471 11 18410569587104953028
12138202 97 17632297942700988494
12251169 10 15719115772587467277
12491281 212 18341893034625719138
12633257 1 15647059291015153984
12788726 201 18049710021441717058
12892183 10 15719384001885322888
13571099 52 18261397711031002503
13764800 53 18340221781019704851
14251764 38 17758668950351880149
14739800 52 17985806350554812304
15061688 2 18410575084673810317
15309172 13 17822005415182549066
15342168 16 18187090559068058613
15375462 189 9295287269996453078
15534591 1 18337673126062282338
15653759 3 15068339003624658237
15775835 57 18410853261110395364
15906896 17 18264490774389428130
16945 1 17917141818369727011
17357779 13 13899614313340361589
1741750 31 18337674225716062138
17804303 29 12829490320433961629
1813 80 17692251833473259110
18186145 218 18334012757179395950
19765921 60 18411697656461014379
19868273 293 17988923409424780430
20291156 8 9223230745321134917
20361792 2 9943803365827786299
204376 136 18186802491163379179
20645476 183 18339358668581405150
20671657 53 12751245791825749096
20871999 31 16988551447065141829
21499 59 18412825772344063143
21524375 3 18410855460138945163
21713013 43 13758065299356720749
21731228 192 17894352193594983955
23184049 59 17894627041684797236
23402539 116 17774993601125170188
23557571 272 16557885966252971863
23559900 14 17561366193283564332
298252 57 18202560691760254914
3472631 163 18202563986327517557
4028521 119 17846780714954732865
4340502 62 18114473262852369283
474 4 18336547123060049707
633830 44 18410010996606913815
7364860 26 17700693965181141591
83771 10 9223230749695054610
94968 8 10663806477749826557
9981440 41 18128808828214612290

> <PUBCHEM_SHAPE_MULTIPOLES>
338.11
7.28
2.04
1.32
0.26
0.87
0
-5.89
0
-0.06
0
0
0.27
-0.69

> <PUBCHEM_SHAPE_SELFOVERLAP>
731.212

> <PUBCHEM_SHAPE_VOLUME>
187.1

> <PUBCHEM_COORDINATE_TYPE>
2
5
10

> <minimizedAffinity>
-8.35826

> <CNNscore>
0.8658357263

> <CNNaffinity>
6.9149508476

> <CNN_VS>
5.9872117043

> <CNNaffinity_variance>
0.5992358327

$$$$
6623


 19 20  0  0  0  0  0  0  0  0999 V2000
  -12.0053  -11.8751   49.6846 C   0  0  0  0  0  0  0  0  0  0  0  0
  -12.2623  -13.4295   49.6773 C   0  0  0  0  0  0  0  0  0  0  0  0
  -11.1415  -11.6388   48.3960 C   0  0  0  0  0  0  0  0  0  0  0  0
   -9.1625   -9.8945   54.1373 O   0  0  0  0  0  0  0  0  0  0  0  0
  -11.2541  -11.3513   50.8613 C   0  0  0  0  0  0  0  0  0  0  0  0
   -9.8665  -11.2239   50.8025 C   0  0  0  0  0  0  0  0  0  0  0  0
  -11.9393  -10.9893   52.0212 C   0  0  0  0  0  0  0  0  0  0  0  0
   -9.1638  -10.7342   51.9033 C   0  0  0  0  0  0  0  0  0  0  0  0
  -11.2366  -10.4996   53.1223 C   0  0  0  0  0  0  0  0  0  0  0  0
   -9.8487  -10.3719   53.0633 C   0  0  0  0  0  0  0  0  0  0  0  0
   -8.2144   -9.8732   53.9214 H   0  0  0  0  0  0  0  0  0  0  0  0
  -17.1397   -9.5840   49.2160 O   0  0  0  0  0  0  0  0  0  0  0  0
  -13.4298  -11.2396   49.5544 C   0  0  0  0  0  0  0  0  0  0  0  0
  -13.5043   -9.9694   49.0764 C   0  0  0  0  0  0  0  0  0  0  0  0
  -14.4898  -12.0038   49.9290 C   0  0  0  0  0  0  0  0  0  0  0  0
  -14.7739   -9.4030   48.9606 C   0  0  0  0  0  0  0  0  0  0  0  0
  -15.7594  -11.4376   49.8131 C   0  0  0  0  0  0  0  0  0  0  0  0
  -15.9014  -10.1372   49.3290 C   0  0  0  0  0  0  0  0  0  0  0  0
  -17.0508   -8.6811   48.8652 H   0  0  0  0  0  0  0  0  0  0  0  0
  4 10  1  0
  4 11  1  0
 12 18  1  0
 12 19  1  0
  1  5  1  0
  1 13  1  0
  1  2  1  0
  1  3  1  0
  5  6  2  0
  5  7  1  0
 13 14  2  0
 13 15  1  0
  6  8  1  0
 14 16  1  0
  7  9  2  0
 15 17  2  0
  8 10  2  0
 16 18  2  0
  9 10  1  0
 17 18  1  0
M  END
> <PUBCHEM_COMPOUND_CID>
6623

> <PUBCHEM_CONFORMER_RMSD>
0.6

> <PUBCHEM_CONFORMER_DIVERSEORDER>
1
3
2

> <PUBCHEM_MMFF94_PARTIAL_CHARGES>
25
1 -0.53
10 -0.15
11 -0.15
12 -0.15
13 -0.15
14 -0.15
15 -0.15
16 0.08
17 0.08
2 -0.53
24 0.15
25 0.15
26 0.15
27 0.15
28 0.15
29 0.15
3 0.29
30 0.15
31 0.15
32 0.45
33 0.45
4 -0.14
5 -0.14
8 -0.15
9 -0.15

> <PUBCHEM_EFFECTIVE_ROTOR_COUNT>
2

> <PUBCHEM_PHARMACOPHORE_FEATURES>
5
1 1 donor
1 2 donor
3 3 6 7 hydrophobe
6 4 8 10 12 14 16 rings
6 5 9 11 13 15 17 rings

> <PUBCHEM_HEAVY_ATOM_COUNT>
17

> <PUBCHEM_ATOM_DEF_STEREO_COUNT>
0

> <PUBCHEM_ATOM_UDEF_STEREO_COUNT>
0

> <PUBCHEM_BOND_DEF_STEREO_COUNT>
0

> <PUBCHEM_BOND_UDEF_STEREO_COUNT>
0

> <PUBCHEM_ISOTOPIC_ATOM_COUNT>
0

> <PUBCHEM_COMPONENT_COUNT>
1

> <PUBCHEM_CACTVS_TAUTO_COUNT>
3

> <PUBCHEM_CONFORMER_ID>
000019DF00000001

> <PUBCHEM_MMFF94_ENERGY>
64.1206

> <PUBCHEM_FEATURE_SELFOVERLAP>
25.372

> <PUBCHEM_SHAPE_FINGERPRINT>
10465860 228 18265052440146906875
10498660 4 17846494807956907777
10618630 7 8862950471944920352
11046707 91 8574440819802817220
11640471 11 18410569587104953028
12138202 97 17632297942700988494
12251169 10 15719115772587467277
12491281 212 18341893034625719138
12633257 1 15647059291015153984
12788726 201 18049710021441717058
12892183 10 15719384001885322888
13571099 52 18261397711031002503
13764800 53 18340221781019704851
14251764 38 17758668950351880149
14739800 52 17985806350554812304
15061688 2 18410575084673810317
15309172 13 17822005415182549066
15342168 16 18187090559068058613
15375462 189 9295287269996453078
15534591 1 18337673126062282338
15653759 3 15068339003624658237
15775835 57 18410853261110395364
15906896 17 18264490774389428130
16945 1 17917141818369727011
17357779 13 13899614313340361589
1741750 31 18337674225716062138
17804303 29 12829490320433961629
1813 80 17692251833473259110
18186145 218 18334012757179395950
19765921 60 18411697656461014379
19868273 293 17988923409424780430
20291156 8 9223230745321134917
20361792 2 9943803365827786299
204376 136 18186802491163379179
20645476 183 18339358668581405150
20671657 53 12751245791825749096
20871999 31 16988551447065141829
21499 59 18412825772344063143
21524375 3 18410855460138945163
21713013 43 13758065299356720749
21731228 192 17894352193594983955
23184049 59 17894627041684797236
23402539 116 17774993601125170188
23557571 272 16557885966252971863
23559900 14 17561366193283564332
298252 57 18202560691760254914
3472631 163 18202563986327517557
4028521 119 17846780714954732865
4340502 62 18114473262852369283
474 4 18336547123060049707
633830 44 18410010996606913815
7364860 26 17700693965181141591
83771 10 9223230749695054610
94968 8 10663806477749826557
9981440 41 18128808828214612290

> <PUBCHEM_SHAPE_MULTIPOLES>
338.11
7.28
2.04
1.32
0.26
0.87
0
-5.89
0
-0.06
0
0
0.27
-0.69

> <PUBCHEM_SHAPE_SELFOVERLAP>
731.212

> <PUBCHEM_SHAPE_VOLUME>
187.1

> <PUBCHEM_COORDINATE_TYPE>
2
5
10

> <minimizedAffinity>
-8.39202

> <CNNscore>
0.8636720777

> <CNNaffinity>
6.9300198555

> <CNN_VS>
5.9852647781

> <CNNaffinity_variance>
0.6320626140

$$$$
6623


 19 20  0  0  0  0  0  0  0  0999 V2000
  -12.5384  -11.5016   50.2181 C   0  0  0  0  0  0  0  0  0  0  0  0
  -12.8911  -10.4614   49.0885 C   0  0  0  0  0  0  0  0  0  0  0  0
  -13.9294  -11.8239   50.8690 C   0  0  0  0  0  0  0  0  0  0  0  0
   -9.0601   -9.6388   54.2507 O   0  0  0  0  0  0  0  0  0  0  0  0
  -11.6192  -11.0090   51.2838 C   0  0  0  0  0  0  0  0  0  0  0  0
  -10.2410  -11.1742   51.1472 C   0  0  0  0  0  0  0  0  0  0  0  0
  -12.1377  -10.3833   52.4175 C   0  0  0  0  0  0  0  0  0  0  0  0
   -9.3812  -10.7136   52.1443 C   0  0  0  0  0  0  0  0  0  0  0  0
  -11.2779   -9.9226   53.4148 C   0  0  0  0  0  0  0  0  0  0  0  0
   -9.8995  -10.0877   53.2781 C   0  0  0  0  0  0  0  0  0  0  0  0
   -8.1436   -9.8360   53.9918 H   0  0  0  0  0  0  0  0  0  0  0  0
  -10.4386  -15.9471   47.4506 O   0  0  0  0  0  0  0  0  0  0  0  0
  -11.9559  -12.7348   49.4501 C   0  0  0  0  0  0  0  0  0  0  0  0
  -12.4760  -13.9554   49.7454 C   0  0  0  0  0  0  0  0  0  0  0  0
  -10.9717  -12.4963   48.5432 C   0  0  0  0  0  0  0  0  0  0  0  0
  -11.9567  -15.0544   49.0611 C   0  0  0  0  0  0  0  0  0  0  0  0
  -10.4525  -13.5952   47.8588 C   0  0  0  0  0  0  0  0  0  0  0  0
  -10.9450  -14.8744   48.1178 C   0  0  0  0  0  0  0  0  0  0  0  0
  -10.8943  -16.7509   47.7542 H   0  0  0  0  0  0  0  0  0  0  0  0
  4 10  1  0
  4 11  1  0
 12 18  1  0
 12 19  1  0
  1  5  1  0
  1 13  1  0
  1  2  1  0
  1  3  1  0
  5  6  2  0
  5  7  1  0
 13 14  2  0
 13 15  1  0
  6  8  1  0
 14 16  1  0
  7  9  2  0
 15 17  2  0
  8 10  2  0
 16 18  2  0
  9 10  1  0
 17 18  1  0
M  END
> <PUBCHEM_COMPOUND_CID>
6623

> <PUBCHEM_CONFORMER_RMSD>
0.6

> <PUBCHEM_CONFORMER_DIVERSEORDER>
1
3
2

> <PUBCHEM_MMFF94_PARTIAL_CHARGES>
25
1 -0.53
10 -0.15
11 -0.15
12 -0.15
13 -0.15
14 -0.15
15 -0.15
16 0.08
17 0.08
2 -0.53
24 0.15
25 0.15
26 0.15
27 0.15
28 0.15
29 0.15
3 0.29
30 0.15
31 0.15
32 0.45
33 0.45
4 -0.14
5 -0.14
8 -0.15
9 -0.15

> <PUBCHEM_EFFECTIVE_ROTOR_COUNT>
2

> <PUBCHEM_PHARMACOPHORE_FEATURES>
5
1 1 donor
1 2 donor
3 3 6 7 hydrophobe
6 4 8 10 12 14 16 rings
6 5 9 11 13 15 17 rings

> <PUBCHEM_HEAVY_ATOM_COUNT>
17

> <PUBCHEM_ATOM_DEF_STEREO_COUNT>
0

> <PUBCHEM_ATOM_UDEF_STEREO_COUNT>
0

> <PUBCHEM_BOND_DEF_STEREO_COUNT>
0

> <PUBCHEM_BOND_UDEF_STEREO_COUNT>
0

> <PUBCHEM_ISOTOPIC_ATOM_COUNT>
0

> <PUBCHEM_COMPONENT_COUNT>
1

> <PUBCHEM_CACTVS_TAUTO_COUNT>
3

> <PUBCHEM_CONFORMER_ID>
000019DF00000001

> <PUBCHEM_MMFF94_ENERGY>
64.1206

> <PUBCHEM_FEATURE_SELFOVERLAP>
25.372

> <PUBCHEM_SHAPE_FINGERPRINT>
10465860 228 18265052440146906875
10498660 4 17846494807956907777
10618630 7 8862950471944920352
11046707 91 8574440819802817220
11640471 11 18410569587104953028
12138202 97 17632297942700988494
12251169 10 15719115772587467277
12491281 212 18341893034625719138
12633257 1 15647059291015153984
12788726 201 18049710021441717058
12892183 10 15719384001885322888
13571099 52 18261397711031002503
13764800 53 18340221781019704851
14251764 38 17758668950351880149
14739800 52 17985806350554812304
15061688 2 18410575084673810317
15309172 13 17822005415182549066
15342168 16 18187090559068058613
15375462 189 9295287269996453078
15534591 1 18337673126062282338
15653759 3 15068339003624658237
15775835 57 18410853261110395364
15906896 17 18264490774389428130
16945 1 17917141818369727011
17357779 13 13899614313340361589
1741750 31 18337674225716062138
17804303 29 12829490320433961629
1813 80 17692251833473259110
18186145 218 18334012757179395950
19765921 60 18411697656461014379
19868273 293 17988923409424780430
20291156 8 9223230745321134917
20361792 2 9943803365827786299
204376 136 18186802491163379179
20645476 183 18339358668581405150
20671657 53 12751245791825749096
20871999 31 16988551447065141829
21499 59 18412825772344063143
21524375 3 18410855460138945163
21713013 43 13758065299356720749
21731228 192 17894352193594983955
23184049 59 17894627041684797236
23402539 116 17774993601125170188
23557571 272 16557885966252971863
23559900 14 17561366193283564332
298252 57 18202560691760254914
3472631 163 18202563986327517557
4028521 119 17846780714954732865
4340502 62 18114473262852369283
474 4 18336547123060049707
633830 44 18410010996606913815
7364860 26 17700693965181141591
83771 10 9223230749695054610
94968 8 10663806477749826557
9981440 41 18128808828214612290

> <PUBCHEM_SHAPE_MULTIPOLES>
338.11
7.28
2.04
1.32
0.26
0.87
0
-5.89
0
-0.06
0
0
0.27
-0.69

> <PUBCHEM_SHAPE_SELFOVERLAP>
731.212

> <PUBCHEM_SHAPE_VOLUME>
187.1

> <PUBCHEM_COORDINATE_TYPE>
2
5
10

> <minimizedAffinity>
-8.53151

> <CNNscore>
0.6649292707

> <CNNaffinity>
7.3610987663

> <CNN_VS>
4.8946099281

> <CNNaffinity_variance>
0.8774741292

$$$$
6623


 19 20  0  0  0  0  0  0  0  0999 V2000
  -12.1197  -11.8752   49.1591 C   0  0  0  0  0  0  0  0  0  0  0  0
  -11.2853  -11.5436   47.8644 C   0  0  0  0  0  0  0  0  0  0  0  0
  -12.2523  -13.4384   49.1212 C   0  0  0  0  0  0  0  0  0  0  0  0
  -17.2958   -9.6398   49.3639 O   0  0  0  0  0  0  0  0  0  0  0  0
  -13.4878  -11.2847   49.2131 C   0  0  0  0  0  0  0  0  0  0  0  0
  -13.8949  -10.3775   48.2352 C   0  0  0  0  0  0  0  0  0  0  0  0
  -14.3602  -11.6393   50.2422 C   0  0  0  0  0  0  0  0  0  0  0  0
  -15.1746   -9.8249   48.2859 C   0  0  0  0  0  0  0  0  0  0  0  0
  -15.6401  -11.0867   50.2930 C   0  0  0  0  0  0  0  0  0  0  0  0
  -16.0473  -10.1795   49.3147 C   0  0  0  0  0  0  0  0  0  0  0  0
  -17.4073   -9.0345   48.6108 H   0  0  0  0  0  0  0  0  0  0  0  0
   -8.8608  -10.1500   53.4292 O   0  0  0  0  0  0  0  0  0  0  0  0
  -11.2155  -11.3968   50.3438 C   0  0  0  0  0  0  0  0  0  0  0  0
  -11.8385  -10.8585   51.4254 C   0  0  0  0  0  0  0  0  0  0  0  0
   -9.8723  -11.5539   50.2056 C   0  0  0  0  0  0  0  0  0  0  0  0
  -11.0325  -10.4320   52.4810 C   0  0  0  0  0  0  0  0  0  0  0  0
   -9.0664  -11.1275   51.2612 C   0  0  0  0  0  0  0  0  0  0  0  0
   -9.6465  -10.5665   52.3990 C   0  0  0  0  0  0  0  0  0  0  0  0
   -9.4279   -9.7887   54.1320 H   0  0  0  0  0  0  0  0  0  0  0  0
  4 10  1  0
  4 11  1  0
 12 18  1  0
 12 19  1  0
  1  5  1  0
  1 13  1  0
  1  2  1  0
  1  3  1  0
  5  6  2  0
  5  7  1  0
 13 14  2  0
 13 15  1  0
  6  8  1  0
 14 16  1  0
  7  9  2  0
 15 17  2  0
  8 10  2  0
 16 18  2  0
  9 10  1  0
 17 18  1  0
M  END
> <PUBCHEM_COMPOUND_CID>
6623

> <PUBCHEM_CONFORMER_RMSD>
0.6

> <PUBCHEM_CONFORMER_DIVERSEORDER>
1
3
2

> <PUBCHEM_MMFF94_PARTIAL_CHARGES>
25
1 -0.53
10 -0.15
11 -0.15
12 -0.15
13 -0.15
14 -0.15
15 -0.15
16 0.08
17 0.08
2 -0.53
24 0.15
25 0.15
26 0.15
27 0.15
28 0.15
29 0.15
3 0.29
30 0.15
31 0.15
32 0.45
33 0.45
4 -0.14
5 -0.14
8 -0.15
9 -0.15

> <PUBCHEM_EFFECTIVE_ROTOR_COUNT>
2

> <PUBCHEM_PHARMACOPHORE_FEATURES>
5
1 1 donor
1 2 donor
3 3 6 7 hydrophobe
6 4 8 10 12 14 16 rings
6 5 9 11 13 15 17 rings

> <PUBCHEM_HEAVY_ATOM_COUNT>
17

> <PUBCHEM_ATOM_DEF_STEREO_COUNT>
0

> <PUBCHEM_ATOM_UDEF_STEREO_COUNT>
0

> <PUBCHEM_BOND_DEF_STEREO_COUNT>
0

> <PUBCHEM_BOND_UDEF_STEREO_COUNT>
0

> <PUBCHEM_ISOTOPIC_ATOM_COUNT>
0

> <PUBCHEM_COMPONENT_COUNT>
1

> <PUBCHEM_CACTVS_TAUTO_COUNT>
3

> <PUBCHEM_CONFORMER_ID>
000019DF00000001

> <PUBCHEM_MMFF94_ENERGY>
64.1206

> <PUBCHEM_FEATURE_SELFOVERLAP>
25.372

> <PUBCHEM_SHAPE_FINGERPRINT>
10465860 228 18265052440146906875
10498660 4 17846494807956907777
10618630 7 8862950471944920352
11046707 91 8574440819802817220
11640471 11 18410569587104953028
12138202 97 17632297942700988494
12251169 10 15719115772587467277
12491281 212 18341893034625719138
12633257 1 15647059291015153984
12788726 201 18049710021441717058
12892183 10 15719384001885322888
13571099 52 18261397711031002503
13764800 53 18340221781019704851
14251764 38 17758668950351880149
14739800 52 17985806350554812304
15061688 2 18410575084673810317
15309172 13 17822005415182549066
15342168 16 18187090559068058613
15375462 189 9295287269996453078
15534591 1 18337673126062282338
15653759 3 15068339003624658237
15775835 57 18410853261110395364
15906896 17 18264490774389428130
16945 1 17917141818369727011
17357779 13 13899614313340361589
1741750 31 18337674225716062138
17804303 29 12829490320433961629
1813 80 17692251833473259110
18186145 218 18334012757179395950
19765921 60 18411697656461014379
19868273 293 17988923409424780430
20291156 8 9223230745321134917
20361792 2 9943803365827786299
204376 136 18186802491163379179
20645476 183 18339358668581405150
20671657 53 12751245791825749096
20871999 31 16988551447065141829
21499 59 18412825772344063143
21524375 3 18410855460138945163
21713013 43 13758065299356720749
21731228 192 17894352193594983955
23184049 59 17894627041684797236
23402539 116 17774993601125170188
23557571 272 16557885966252971863
23559900 14 17561366193283564332
298252 57 18202560691760254914
3472631 163 18202563986327517557
4028521 119 17846780714954732865
4340502 62 18114473262852369283
474 4 18336547123060049707
633830 44 18410010996606913815
7364860 26 17700693965181141591
83771 10 9223230749695054610
94968 8 10663806477749826557
9981440 41 18128808828214612290

> <PUBCHEM_SHAPE_MULTIPOLES>
338.11
7.28
2.04
1.32
0.26
0.87
0
-5.89
0
-0.06
0
0
0.27
-0.69

> <PUBCHEM_SHAPE_SELFOVERLAP>
731.212

> <PUBCHEM_SHAPE_VOLUME>
187.1

> <PUBCHEM_COORDINATE_TYPE>
2
5
10

> <minimizedAffinity>
-7.31857

> <CNNscore>
0.6601650119

> <CNNaffinity>
6.8152890205

> <CNN_VS>
4.4992151260

> <CNNaffinity_variance>
0.5934904218

$$$$
6623


 19 20  0  0  0  0  0  0  0  0999 V2000
  -12.5615  -11.4836   50.1935 C   0  0  0  0  0  0  0  0  0  0  0  0
  -13.9361  -11.7196   50.9264 C   0  0  0  0  0  0  0  0  0  0  0  0
  -12.8883  -10.3558   49.1524 C   0  0  0  0  0  0  0  0  0  0  0  0
  -10.4801  -15.9343   47.4206 O   0  0  0  0  0  0  0  0  0  0  0  0
  -12.0112  -12.6599   49.4609 C   0  0  0  0  0  0  0  0  0  0  0  0
  -11.0516  -12.4753   48.4658 C   0  0  0  0  0  0  0  0  0  0  0  0
  -12.4566  -13.9450   49.7706 C   0  0  0  0  0  0  0  0  0  0  0  0
  -10.5371  -13.5757   47.7803 C   0  0  0  0  0  0  0  0  0  0  0  0
  -11.9422  -15.0457   49.0851 C   0  0  0  0  0  0  0  0  0  0  0  0
  -10.9822  -14.8610   48.0899 C   0  0  0  0  0  0  0  0  0  0  0  0
   -9.8287  -15.6228   46.7689 H   0  0  0  0  0  0  0  0  0  0  0  0
   -9.0876   -9.6543   54.2453 O   0  0  0  0  0  0  0  0  0  0  0  0
  -11.5978  -10.9758   51.3176 C   0  0  0  0  0  0  0  0  0  0  0  0
  -10.2653  -11.1679   51.1298 C   0  0  0  0  0  0  0  0  0  0  0  0
  -12.1629  -10.3796   52.4007 C   0  0  0  0  0  0  0  0  0  0  0  0
   -9.4066  -10.7156   52.1317 C   0  0  0  0  0  0  0  0  0  0  0  0
  -11.3042   -9.9271   53.4025 C   0  0  0  0  0  0  0  0  0  0  0  0
   -9.9260  -10.0952   53.2680 C   0  0  0  0  0  0  0  0  0  0  0  0
   -8.1710   -9.8527   53.9873 H   0  0  0  0  0  0  0  0  0  0  0  0
  4 10  1  0
  4 11  1  0
 12 18  1  0
 12 19  1  0
  1  5  1  0
  1 13  1  0
  1  2  1  0
  1  3  1  0
  5  6  2  0
  5  7  1  0
 13 14  2  0
 13 15  1  0
  6  8  1  0
 14 16  1  0
  7  9  2  0
 15 17  2  0
  8 10  2  0
 16 18  2  0
  9 10  1  0
 17 18  1  0
M  END
> <PUBCHEM_COMPOUND_CID>
6623

> <PUBCHEM_CONFORMER_RMSD>
0.6

> <PUBCHEM_CONFORMER_DIVERSEORDER>
1
3
2

> <PUBCHEM_MMFF94_PARTIAL_CHARGES>
25
1 -0.53
10 -0.15
11 -0.15
12 -0.15
13 -0.15
14 -0.15
15 -0.15
16 0.08
17 0.08
2 -0.53
24 0.15
25 0.15
26 0.15
27 0.15
28 0.15
29 0.15
3 0.29
30 0.15
31 0.15
32 0.45
33 0.45
4 -0.14
5 -0.14
8 -0.15
9 -0.15

> <PUBCHEM_EFFECTIVE_ROTOR_COUNT>
2

> <PUBCHEM_PHARMACOPHORE_FEATURES>
5
1 1 donor
1 2 donor
3 3 6 7 hydrophobe
6 4 8 10 12 14 16 rings
6 5 9 11 13 15 17 rings

> <PUBCHEM_HEAVY_ATOM_COUNT>
17

> <PUBCHEM_ATOM_DEF_STEREO_COUNT>
0

> <PUBCHEM_ATOM_UDEF_STEREO_COUNT>
0

> <PUBCHEM_BOND_DEF_STEREO_COUNT>
0

> <PUBCHEM_BOND_UDEF_STEREO_COUNT>
0

> <PUBCHEM_ISOTOPIC_ATOM_COUNT>
0

> <PUBCHEM_COMPONENT_COUNT>
1

> <PUBCHEM_CACTVS_TAUTO_COUNT>
3

> <PUBCHEM_CONFORMER_ID>
000019DF00000001

> <PUBCHEM_MMFF94_ENERGY>
64.1206

> <PUBCHEM_FEATURE_SELFOVERLAP>
25.372

> <PUBCHEM_SHAPE_FINGERPRINT>
10465860 228 18265052440146906875
10498660 4 17846494807956907777
10618630 7 8862950471944920352
11046707 91 8574440819802817220
11640471 11 18410569587104953028
12138202 97 17632297942700988494
12251169 10 15719115772587467277
12491281 212 18341893034625719138
12633257 1 15647059291015153984
12788726 201 18049710021441717058
12892183 10 15719384001885322888
13571099 52 18261397711031002503
13764800 53 18340221781019704851
14251764 38 17758668950351880149
14739800 52 17985806350554812304
15061688 2 18410575084673810317
15309172 13 17822005415182549066
15342168 16 18187090559068058613
15375462 189 9295287269996453078
15534591 1 18337673126062282338
15653759 3 15068339003624658237
15775835 57 18410853261110395364
15906896 17 18264490774389428130
16945 1 17917141818369727011
17357779 13 13899614313340361589
1741750 31 18337674225716062138
17804303 29 12829490320433961629
1813 80 17692251833473259110
18186145 218 18334012757179395950
19765921 60 18411697656461014379
19868273 293 17988923409424780430
20291156 8 9223230745321134917
20361792 2 9943803365827786299
204376 136 18186802491163379179
20645476 183 18339358668581405150
20671657 53 12751245791825749096
20871999 31 16988551447065141829
21499 59 18412825772344063143
21524375 3 18410855460138945163
21713013 43 13758065299356720749
21731228 192 17894352193594983955
23184049 59 17894627041684797236
23402539 116 17774993601125170188
23557571 272 16557885966252971863
23559900 14 17561366193283564332
298252 57 18202560691760254914
3472631 163 18202563986327517557
4028521 119 17846780714954732865
4340502 62 18114473262852369283
474 4 18336547123060049707
633830 44 18410010996606913815
7364860 26 17700693965181141591
83771 10 9223230749695054610
94968 8 10663806477749826557
9981440 41 18128808828214612290

> <PUBCHEM_SHAPE_MULTIPOLES>
338.11
7.28
2.04
1.32
0.26
0.87
0
-5.89
0
-0.06
0
0
0.27
-0.69

> <PUBCHEM_SHAPE_SELFOVERLAP>
731.212

> <PUBCHEM_SHAPE_VOLUME>
187.1

> <PUBCHEM_COORDINATE_TYPE>
2
5
10

> <minimizedAffinity>
-8.48991

> <CNNscore>
0.6544188261

> <CNNaffinity>
7.3631248474

> <CNN_VS>
4.8185677528

> <CNNaffinity_variance>
0.8891029358

$$$$
6623


 19 20  0  0  0  0  0  0  0  0999 V2000
  -13.9419  -10.5034   49.6106 C   0  0  0  0  0  0  0  0  0  0  0  0
  -14.4537   -9.0589   49.2449 C   0  0  0  0  0  0  0  0  0  0  0  0
  -15.1235  -11.1124   50.4445 C   0  0  0  0  0  0  0  0  0  0  0  0
   -9.2491  -10.7087   52.7357 O   0  0  0  0  0  0  0  0  0  0  0  0
  -12.7015  -10.5579   50.4364 C   0  0  0  0  0  0  0  0  0  0  0  0
  -12.7714  -10.9422   51.7752 C   0  0  0  0  0  0  0  0  0  0  0  0
  -11.4713  -10.2241   49.8698 C   0  0  0  0  0  0  0  0  0  0  0  0
  -11.6112  -10.9929   52.5478 C   0  0  0  0  0  0  0  0  0  0  0  0
  -10.3109  -10.2747   50.6423 C   0  0  0  0  0  0  0  0  0  0  0  0
  -10.3808  -10.6593   51.9814 C   0  0  0  0  0  0  0  0  0  0  0  0
   -9.4825  -10.9938   53.6358 H   0  0  0  0  0  0  0  0  0  0  0  0
  -13.3323  -13.0963   44.6371 O   0  0  0  0  0  0  0  0  0  0  0  0
  -13.7727  -11.2225   48.2307 C   0  0  0  0  0  0  0  0  0  0  0  0
  -14.8417  -11.9124   47.7522 C   0  0  0  0  0  0  0  0  0  0  0  0
  -12.5688  -11.1055   47.6102 C   0  0  0  0  0  0  0  0  0  0  0  0
  -14.6908  -12.5535   46.5226 C   0  0  0  0  0  0  0  0  0  0  0  0
  -12.4179  -11.7464   46.3805 C   0  0  0  0  0  0  0  0  0  0  0  0
  -13.4789  -12.4705   45.8367 C   0  0  0  0  0  0  0  0  0  0  0  0
  -14.1640  -13.5485   44.4138 H   0  0  0  0  0  0  0  0  0  0  0  0
  4 10  1  0
  4 11  1  0
 12 18  1  0
 12 19  1  0
  1  5  1  0
  1 13  1  0
  1  2  1  0
  1  3  1  0
  5  6  2  0
  5  7  1  0
 13 14  2  0
 13 15  1  0
  6  8  1  0
 14 16  1  0
  7  9  2  0
 15 17  2  0
  8 10  2  0
 16 18  2  0
  9 10  1  0
 17 18  1  0
M  END
> <PUBCHEM_COMPOUND_CID>
6623

> <PUBCHEM_CONFORMER_RMSD>
0.6

> <PUBCHEM_CONFORMER_DIVERSEORDER>
1
3
2

> <PUBCHEM_MMFF94_PARTIAL_CHARGES>
25
1 -0.53
10 -0.15
11 -0.15
12 -0.15
13 -0.15
14 -0.15
15 -0.15
16 0.08
17 0.08
2 -0.53
24 0.15
25 0.15
26 0.15
27 0.15
28 0.15
29 0.15
3 0.29
30 0.15
31 0.15
32 0.45
33 0.45
4 -0.14
5 -0.14
8 -0.15
9 -0.15

> <PUBCHEM_EFFECTIVE_ROTOR_COUNT>
2

> <PUBCHEM_PHARMACOPHORE_FEATURES>
5
1 1 donor
1 2 donor
3 3 6 7 hydrophobe
6 4 8 10 12 14 16 rings
6 5 9 11 13 15 17 rings

> <PUBCHEM_HEAVY_ATOM_COUNT>
17

> <PUBCHEM_ATOM_DEF_STEREO_COUNT>
0

> <PUBCHEM_ATOM_UDEF_STEREO_COUNT>
0

> <PUBCHEM_BOND_DEF_STEREO_COUNT>
0

> <PUBCHEM_BOND_UDEF_STEREO_COUNT>
0

> <PUBCHEM_ISOTOPIC_ATOM_COUNT>
0

> <PUBCHEM_COMPONENT_COUNT>
1

> <PUBCHEM_CACTVS_TAUTO_COUNT>
3

> <PUBCHEM_CONFORMER_ID>
000019DF00000001

> <PUBCHEM_MMFF94_ENERGY>
64.1206

> <PUBCHEM_FEATURE_SELFOVERLAP>
25.372

> <PUBCHEM_SHAPE_FINGERPRINT>
10465860 228 18265052440146906875
10498660 4 17846494807956907777
10618630 7 8862950471944920352
11046707 91 8574440819802817220
11640471 11 18410569587104953028
12138202 97 17632297942700988494
12251169 10 15719115772587467277
12491281 212 18341893034625719138
12633257 1 15647059291015153984
12788726 201 18049710021441717058
12892183 10 15719384001885322888
13571099 52 18261397711031002503
13764800 53 18340221781019704851
14251764 38 17758668950351880149
14739800 52 17985806350554812304
15061688 2 18410575084673810317
15309172 13 17822005415182549066
15342168 16 18187090559068058613
15375462 189 9295287269996453078
15534591 1 18337673126062282338
15653759 3 15068339003624658237
15775835 57 18410853261110395364
15906896 17 18264490774389428130
16945 1 17917141818369727011
17357779 13 13899614313340361589
1741750 31 18337674225716062138
17804303 29 12829490320433961629
1813 80 17692251833473259110
18186145 218 18334012757179395950
19765921 60 18411697656461014379
19868273 293 17988923409424780430
20291156 8 9223230745321134917
20361792 2 9943803365827786299
204376 136 18186802491163379179
20645476 183 18339358668581405150
20671657 53 12751245791825749096
20871999 31 16988551447065141829
21499 59 18412825772344063143
21524375 3 18410855460138945163
21713013 43 13758065299356720749
21731228 192 17894352193594983955
23184049 59 17894627041684797236
23402539 116 17774993601125170188
23557571 272 16557885966252971863
23559900 14 17561366193283564332
298252 57 18202560691760254914
3472631 163 18202563986327517557
4028521 119 17846780714954732865
4340502 62 18114473262852369283
474 4 18336547123060049707
633830 44 18410010996606913815
7364860 26 17700693965181141591
83771 10 9223230749695054610
94968 8 10663806477749826557
9981440 41 18128808828214612290

> <PUBCHEM_SHAPE_MULTIPOLES>
338.11
7.28
2.04
1.32
0.26
0.87
0
-5.89
0
-0.06
0
0
0.27
-0.69

> <PUBCHEM_SHAPE_SELFOVERLAP>
731.212

> <PUBCHEM_SHAPE_VOLUME>
187.1

> <PUBCHEM_COORDINATE_TYPE>
2
5
10

> <minimizedAffinity>
-8.35041

> <CNNscore>
0.6528098583

> <CNNaffinity>
6.6156249046

> <CNN_VS>
4.3187451363

> <CNNaffinity_variance>
0.3950472176

$$$$
6623


 19 20  0  0  0  0  0  0  0  0999 V2000
  -11.8818  -12.6738   49.6318 C   0  0  0  0  0  0  0  0  0  0  0  0
  -13.0969  -13.5706   50.0805 C   0  0  0  0  0  0  0  0  0  0  0  0
  -10.8108  -13.7170   49.1548 C   0  0  0  0  0  0  0  0  0  0  0  0
   -9.5898   -9.4726   53.6729 O   0  0  0  0  0  0  0  0  0  0  0  0
  -11.2762  -11.8275   50.6997 C   0  0  0  0  0  0  0  0  0  0  0  0
   -9.9360  -11.4509   50.6150 C   0  0  0  0  0  0  0  0  0  0  0  0
  -12.0501  -11.4129   51.7837 C   0  0  0  0  0  0  0  0  0  0  0  0
   -9.3694  -10.6595   51.6142 C   0  0  0  0  0  0  0  0  0  0  0  0
  -11.4836  -10.6214   52.7830 C   0  0  0  0  0  0  0  0  0  0  0  0
  -10.1432  -10.2445   52.6982 C   0  0  0  0  0  0  0  0  0  0  0  0
   -8.6567   -9.3084   53.4532 H   0  0  0  0  0  0  0  0  0  0  0  0
  -13.8845   -9.6127   45.3366 O   0  0  0  0  0  0  0  0  0  0  0  0
  -12.4376  -11.8246   48.4402 C   0  0  0  0  0  0  0  0  0  0  0  0
  -11.8931  -12.0406   47.2136 C   0  0  0  0  0  0  0  0  0  0  0  0
  -13.4247  -10.9322   48.7179 C   0  0  0  0  0  0  0  0  0  0  0  0
  -12.3884  -11.2837   46.1518 C   0  0  0  0  0  0  0  0  0  0  0  0
  -13.9201  -10.1753   47.6561 C   0  0  0  0  0  0  0  0  0  0  0  0
  -13.4019  -10.3510   46.3730 C   0  0  0  0  0  0  0  0  0  0  0  0
  -13.4127   -9.8640   44.5240 H   0  0  0  0  0  0  0  0  0  0  0  0
  4 10  1  0
  4 11  1  0
 12 18  1  0
 12 19  1  0
  1  5  1  0
  1 13  1  0
  1  2  1  0
  1  3  1  0
  5  6  2  0
  5  7  1  0
 13 14  2  0
 13 15  1  0
  6  8  1  0
 14 16  1  0
  7  9  2  0
 15 17  2  0
  8 10  2  0
 16 18  2  0
  9 10  1  0
 17 18  1  0
M  END
> <PUBCHEM_COMPOUND_CID>
6623

> <PUBCHEM_CONFORMER_RMSD>
0.6

> <PUBCHEM_CONFORMER_DIVERSEORDER>
1
3
2

> <PUBCHEM_MMFF94_PARTIAL_CHARGES>
25
1 -0.53
10 -0.15
11 -0.15
12 -0.15
13 -0.15
14 -0.15
15 -0.15
16 0.08
17 0.08
2 -0.53
24 0.15
25 0.15
26 0.15
27 0.15
28 0.15
29 0.15
3 0.29
30 0.15
31 0.15
32 0.45
33 0.45
4 -0.14
5 -0.14
8 -0.15
9 -0.15

> <PUBCHEM_EFFECTIVE_ROTOR_COUNT>
2

> <PUBCHEM_PHARMACOPHORE_FEATURES>
5
1 1 donor
1 2 donor
3 3 6 7 hydrophobe
6 4 8 10 12 14 16 rings
6 5 9 11 13 15 17 rings

> <PUBCHEM_HEAVY_ATOM_COUNT>
17

> <PUBCHEM_ATOM_DEF_STEREO_COUNT>
0

> <PUBCHEM_ATOM_UDEF_STEREO_COUNT>
0

> <PUBCHEM_BOND_DEF_STEREO_COUNT>
0

> <PUBCHEM_BOND_UDEF_STEREO_COUNT>
0

> <PUBCHEM_ISOTOPIC_ATOM_COUNT>
0

> <PUBCHEM_COMPONENT_COUNT>
1

> <PUBCHEM_CACTVS_TAUTO_COUNT>
3

> <PUBCHEM_CONFORMER_ID>
000019DF00000001

> <PUBCHEM_MMFF94_ENERGY>
64.1206

> <PUBCHEM_FEATURE_SELFOVERLAP>
25.372

> <PUBCHEM_SHAPE_FINGERPRINT>
10465860 228 18265052440146906875
10498660 4 17846494807956907777
10618630 7 8862950471944920352
11046707 91 8574440819802817220
11640471 11 18410569587104953028
12138202 97 17632297942700988494
12251169 10 15719115772587467277
12491281 212 18341893034625719138
12633257 1 15647059291015153984
12788726 201 18049710021441717058
12892183 10 15719384001885322888
13571099 52 18261397711031002503
13764800 53 18340221781019704851
14251764 38 17758668950351880149
14739800 52 17985806350554812304
15061688 2 18410575084673810317
15309172 13 17822005415182549066
15342168 16 18187090559068058613
15375462 189 9295287269996453078
15534591 1 18337673126062282338
15653759 3 15068339003624658237
15775835 57 18410853261110395364
15906896 17 18264490774389428130
16945 1 17917141818369727011
17357779 13 13899614313340361589
1741750 31 18337674225716062138
17804303 29 12829490320433961629
1813 80 17692251833473259110
18186145 218 18334012757179395950
19765921 60 18411697656461014379
19868273 293 17988923409424780430
20291156 8 9223230745321134917
20361792 2 9943803365827786299
204376 136 18186802491163379179
20645476 183 18339358668581405150
20671657 53 12751245791825749096
20871999 31 16988551447065141829
21499 59 18412825772344063143
21524375 3 18410855460138945163
21713013 43 13758065299356720749
21731228 192 17894352193594983955
23184049 59 17894627041684797236
23402539 116 17774993601125170188
23557571 272 16557885966252971863
23559900 14 17561366193283564332
298252 57 18202560691760254914
3472631 163 18202563986327517557
4028521 119 17846780714954732865
4340502 62 18114473262852369283
474 4 18336547123060049707
633830 44 18410010996606913815
7364860 26 17700693965181141591
83771 10 9223230749695054610
94968 8 10663806477749826557
9981440 41 18128808828214612290

> <PUBCHEM_SHAPE_MULTIPOLES>
338.11
7.28
2.04
1.32
0.26
0.87
0
-5.89
0
-0.06
0
0
0.27
-0.69

> <PUBCHEM_SHAPE_SELFOVERLAP>
731.212

> <PUBCHEM_SHAPE_VOLUME>
187.1

> <PUBCHEM_COORDINATE_TYPE>
2
5
10

> <minimizedAffinity>
-8.24018

> <CNNscore>
0.6502496600

> <CNNaffinity>
7.1288452148

> <CNN_VS>
4.6355290413

> <CNNaffinity_variance>
1.2199994326

$$$$
6623


 19 20  0  0  0  0  0  0  0  0999 V2000
  -11.8019  -12.6765   49.5803 C   0  0  0  0  0  0  0  0  0  0  0  0
  -10.6467  -13.6746   49.1910 C   0  0  0  0  0  0  0  0  0  0  0  0
  -12.9358  -13.6180   50.1193 C   0  0  0  0  0  0  0  0  0  0  0  0
  -13.8947   -9.5950   45.3428 O   0  0  0  0  0  0  0  0  0  0  0  0
  -12.3548  -11.8619   48.4604 C   0  0  0  0  0  0  0  0  0  0  0  0
  -13.3684  -10.9359   48.7057 C   0  0  0  0  0  0  0  0  0  0  0  0
  -11.8583  -12.0264   47.1672 C   0  0  0  0  0  0  0  0  0  0  0  0
  -13.8858  -10.1741   47.6581 C   0  0  0  0  0  0  0  0  0  0  0  0
  -12.3756  -11.2646   46.1193 C   0  0  0  0  0  0  0  0  0  0  0  0
  -13.3893  -10.3383   46.3648 C   0  0  0  0  0  0  0  0  0  0  0  0
  -14.5866   -9.0076   45.6925 H   0  0  0  0  0  0  0  0  0  0  0  0
   -9.6002   -9.4870   53.6803 O   0  0  0  0  0  0  0  0  0  0  0  0
  -11.1912  -11.7914   50.7177 C   0  0  0  0  0  0  0  0  0  0  0  0
   -9.8845  -11.4369   50.5979 C   0  0  0  0  0  0  0  0  0  0  0  0
  -12.0117  -11.4413   51.7435 C   0  0  0  0  0  0  0  0  0  0  0  0
   -9.3403  -10.6484   51.6118 C   0  0  0  0  0  0  0  0  0  0  0  0
  -11.4676  -10.6526   52.7572 C   0  0  0  0  0  0  0  0  0  0  0  0
  -10.1318  -10.2562   52.6914 C   0  0  0  0  0  0  0  0  0  0  0  0
   -8.6670   -9.3075   53.4728 H   0  0  0  0  0  0  0  0  0  0  0  0
  4 10  1  0
  4 11  1  0
 12 18  1  0
 12 19  1  0
  1  5  1  0
  1 13  1  0
  1  2  1  0
  1  3  1  0
  5  6  2  0
  5  7  1  0
 13 14  2  0
 13 15  1  0
  6  8  1  0
 14 16  1  0
  7  9  2  0
 15 17  2  0
  8 10  2  0
 16 18  2  0
  9 10  1  0
 17 18  1  0
M  END
> <PUBCHEM_COMPOUND_CID>
6623

> <PUBCHEM_CONFORMER_RMSD>
0.6

> <PUBCHEM_CONFORMER_DIVERSEORDER>
1
3
2

> <PUBCHEM_MMFF94_PARTIAL_CHARGES>
25
1 -0.53
10 -0.15
11 -0.15
12 -0.15
13 -0.15
14 -0.15
15 -0.15
16 0.08
17 0.08
2 -0.53
24 0.15
25 0.15
26 0.15
27 0.15
28 0.15
29 0.15
3 0.29
30 0.15
31 0.15
32 0.45
33 0.45
4 -0.14
5 -0.14
8 -0.15
9 -0.15

> <PUBCHEM_EFFECTIVE_ROTOR_COUNT>
2

> <PUBCHEM_PHARMACOPHORE_FEATURES>
5
1 1 donor
1 2 donor
3 3 6 7 hydrophobe
6 4 8 10 12 14 16 rings
6 5 9 11 13 15 17 rings

> <PUBCHEM_HEAVY_ATOM_COUNT>
17

> <PUBCHEM_ATOM_DEF_STEREO_COUNT>
0

> <PUBCHEM_ATOM_UDEF_STEREO_COUNT>
0

> <PUBCHEM_BOND_DEF_STEREO_COUNT>
0

> <PUBCHEM_BOND_UDEF_STEREO_COUNT>
0

> <PUBCHEM_ISOTOPIC_ATOM_COUNT>
0

> <PUBCHEM_COMPONENT_COUNT>
1

> <PUBCHEM_CACTVS_TAUTO_COUNT>
3

> <PUBCHEM_CONFORMER_ID>
000019DF00000001

> <PUBCHEM_MMFF94_ENERGY>
64.1206

> <PUBCHEM_FEATURE_SELFOVERLAP>
25.372

> <PUBCHEM_SHAPE_FINGERPRINT>
10465860 228 18265052440146906875
10498660 4 17846494807956907777
10618630 7 8862950471944920352
11046707 91 8574440819802817220
11640471 11 18410569587104953028
12138202 97 17632297942700988494
12251169 10 15719115772587467277
12491281 212 18341893034625719138
12633257 1 15647059291015153984
12788726 201 18049710021441717058
12892183 10 15719384001885322888
13571099 52 18261397711031002503
13764800 53 18340221781019704851
14251764 38 17758668950351880149
14739800 52 17985806350554812304
15061688 2 18410575084673810317
15309172 13 17822005415182549066
15342168 16 18187090559068058613
15375462 189 9295287269996453078
15534591 1 18337673126062282338
15653759 3 15068339003624658237
15775835 57 18410853261110395364
15906896 17 18264490774389428130
16945 1 17917141818369727011
17357779 13 13899614313340361589
1741750 31 18337674225716062138
17804303 29 12829490320433961629
1813 80 17692251833473259110
18186145 218 18334012757179395950
19765921 60 18411697656461014379
19868273 293 17988923409424780430
20291156 8 9223230745321134917
20361792 2 9943803365827786299
204376 136 18186802491163379179
20645476 183 18339358668581405150
20671657 53 12751245791825749096
20871999 31 16988551447065141829
21499 59 18412825772344063143
21524375 3 18410855460138945163
21713013 43 13758065299356720749
21731228 192 17894352193594983955
23184049 59 17894627041684797236
23402539 116 17774993601125170188
23557571 272 16557885966252971863
23559900 14 17561366193283564332
298252 57 18202560691760254914
3472631 163 18202563986327517557
4028521 119 17846780714954732865
4340502 62 18114473262852369283
474 4 18336547123060049707
633830 44 18410010996606913815
7364860 26 17700693965181141591
83771 10 9223230749695054610
94968 8 10663806477749826557
9981440 41 18128808828214612290

> <PUBCHEM_SHAPE_MULTIPOLES>
338.11
7.28
2.04
1.32
0.26
0.87
0
-5.89
0
-0.06
0
0
0.27
-0.69

> <PUBCHEM_SHAPE_SELFOVERLAP>
731.212

> <PUBCHEM_SHAPE_VOLUME>
187.1

> <PUBCHEM_COORDINATE_TYPE>
2
5
10

> <minimizedAffinity>
-8.14220

> <CNNscore>
0.6384309530

> <CNNaffinity>
7.0765404701

> <CNN_VS>
4.5178823471

> <CNNaffinity_variance>
1.1152409315

$$$$
