
     RDKit          3D

 20 23  0  0  0  0  0  0  0  0999 V2000
   20.1490    4.1850    7.7240 C   0  0  0  0  0  0  0  0  0  0  0  0
   18.8270    4.3900    8.0270 C   0  0  0  0  0  0  0  0  0  0  0  0
   17.9580    4.9780    7.1560 C   0  0  2  0  0  0  0  0  0  0  0  0
   16.6830    5.1560    7.4000 O   0  0  0  0  0  0  0  0  0  0  0  0
   18.4820    5.3260    5.9280 C   0  0  0  0  0  0  0  0  0  0  0  0
   19.7950    5.1380    5.5910 C   0  0  0  0  0  0  0  0  0  0  0  0
   20.2710    5.5740    4.1940 C   0  0  0  0  0  0  0  0  0  0  0  0
   21.7470    5.6320    4.0640 C   0  0  0  0  0  0  0  0  0  0  0  0
   22.3700    4.4120    4.6090 C   0  0  2  0  0  0  0  0  0  0  0  0
   22.1120    4.3660    6.1420 C   0  0  1  0  0  0  0  0  0  0  0  0
   20.6360    4.5490    6.4800 C   0  0  1  0  0  0  0  0  0  0  0  0
   22.8250    3.1530    6.8150 C   0  0  0  0  0  0  0  0  0  0  0  0
   24.3070    3.1070    6.4540 C   0  0  0  0  0  0  0  0  0  0  0  0
   24.5350    3.1820    4.9420 C   0  0  1  0  0  0  0  0  0  0  0  0
   23.8640    4.4240    4.4110 C   0  0  1  0  0  0  0  0  0  0  0  0
   24.3750    4.4970    2.9840 C   0  0  0  0  0  0  0  0  0  0  0  0
   25.7980    3.9550    3.0890 C   0  0  0  0  0  0  0  0  0  0  0  0
   25.9700    3.4700    4.5580 C   0  0  2  0  0  0  0  0  0  0  0  0
   26.7720    2.3450    4.6230 O   0  0  0  0  0  0  0  0  0  0  0  0
   24.0580    1.9160    4.3080 C   0  0  0  0  0  0  0  0  0  0  0  0
  2  1  1  0
  3  2  1  0
  3  4  1  6
  5  3  1  0
  6  5  1  0
  7  6  1  0
  8  7  1  0
  9  8  1  1
 10  9  1  0
 11  6  1  0
 11  1  1  1
 11 10  1  0
 10 12  1  6
 13 12  1  0
 14 13  1  0
 15 14  1  0
 15  9  1  0
 15 16  1  6
 17 16  1  0
 18 17  1  0
 18 14  1  0
 18 19  1  6
 14 20  1  6
M  END
$$$$
