10913
 OpenBabel07292612043D

 50 50  0  0  0  0  0  0  0  0999 V2000
    2.4028    1.3120    0.5316 Si  0  0  0  0  0  0  0  0  0  0  0  0
    1.8835   -1.6723   -0.3082 Si  0  0  0  0  0  0  0  0  0  0  0  0
   -0.3222    2.2469   -0.7480 Si  0  0  0  0  0  0  0  0  0  0  0  0
   -1.2325   -2.1958   -0.1508 Si  0  0  0  0  0  0  0  0  0  0  0  0
   -2.6275    0.5283    0.5366 Si  0  0  0  0  0  0  0  0  0  0  0  0
    2.5731   -0.1529   -0.2509 O   0  0  0  0  0  0  0  0  0  0  0  0
    1.2687    2.2458   -0.2524 O   0  0  0  0  0  0  0  0  0  0  0  0
    0.2434   -1.4634   -0.3040 O   0  0  0  0  0  0  0  0  0  0  0  0
   -1.2386    1.4366    0.3834 O   0  0  0  0  0  0  0  0  0  0  0  0
   -2.3743   -0.9752   -0.1455 O   0  0  0  0  0  0  0  0  0  0  0  0
    4.0614    2.2160    0.5122 C   0  0  0  0  0  0  0  0  0  0  0  0
    1.9353    1.0759    2.3367 C   0  0  0  0  0  0  0  0  0  0  0  0
    2.4390   -2.7028    1.1590 C   0  0  0  0  0  0  0  0  0  0  0  0
    2.4338   -2.5608   -1.8675 C   0  0  0  0  0  0  0  0  0  0  0  0
   -0.4726    1.4876   -2.4591 C   0  0  0  0  0  0  0  0  0  0  0  0
   -0.9288    4.0278   -0.8828 C   0  0  0  0  0  0  0  0  0  0  0  0
   -1.5522   -3.3594   -1.5888 C   0  0  0  0  0  0  0  0  0  0  0  0
   -1.3344   -3.2008    1.4295 C   0  0  0  0  0  0  0  0  0  0  0  0
   -3.0643    0.3541    2.3583 C   0  0  0  0  0  0  0  0  0  0  0  0
   -4.0822    1.3725   -0.3043 C   0  0  0  0  0  0  0  0  0  0  0  0
    4.3699    2.3736   -0.5002 H   0  0  0  0  0  0  0  0  0  0  0  0
    4.7951    1.6262    1.0209 H   0  0  0  0  0  0  0  0  0  0  0  0
    3.9588    3.1602    1.0049 H   0  0  0  0  0  0  0  0  0  0  0  0
    0.9971    0.5651    2.3982 H   0  0  0  0  0  0  0  0  0  0  0  0
    1.8531    2.0311    2.8117 H   0  0  0  0  0  0  0  0  0  0  0  0
    2.6894    0.4971    2.8277 H   0  0  0  0  0  0  0  0  0  0  0  0
    2.1395   -2.2217    2.0666 H   0  0  0  0  0  0  0  0  0  0  0  0
    3.5043   -2.8017    1.1425 H   0  0  0  0  0  0  0  0  0  0  0  0
    1.9900   -3.6724    1.1042 H   0  0  0  0  0  0  0  0  0  0  0  0
    2.1312   -1.9969   -2.7250 H   0  0  0  0  0  0  0  0  0  0  0  0
    1.9848   -3.5314   -1.9023 H   0  0  0  0  0  0  0  0  0  0  0  0
    3.4992   -2.6606   -1.8641 H   0  0  0  0  0  0  0  0  0  0  0  0
   -0.1375    0.4719   -2.4294 H   0  0  0  0  0  0  0  0  0  0  0  0
    0.1289    2.0415   -3.1493 H   0  0  0  0  0  0  0  0  0  0  0  0
   -1.4949    1.5168   -2.7737 H   0  0  0  0  0  0  0  0  0  0  0  0
   -0.8604    4.5012    0.0744 H   0  0  0  0  0  0  0  0  0  0  0  0
   -1.9470    4.0338   -1.2118 H   0  0  0  0  0  0  0  0  0  0  0  0
   -0.3232    4.5585   -1.5873 H   0  0  0  0  0  0  0  0  0  0  0  0
   -1.5006   -2.8135   -2.5076 H   0  0  0  0  0  0  0  0  0  0  0  0
   -2.5245   -3.7942   -1.4864 H   0  0  0  0  0  0  0  0  0  0  0  0
   -0.8138   -4.1338   -1.5919 H   0  0  0  0  0  0  0  0  0  0  0  0
   -1.1560   -2.5631    2.2699 H   0  0  0  0  0  0  0  0  0  0  0  0
   -0.5974   -3.9762    1.4072 H   0  0  0  0  0  0  0  0  0  0  0  0
   -2.3081   -3.6366    1.5128 H   0  0  0  0  0  0  0  0  0  0  0  0
   -2.2580   -0.1241    2.8742 H   0  0  0  0  0  0  0  0  0  0  0  0
   -3.9512   -0.2361    2.4575 H   0  0  0  0  0  0  0  0  0  0  0  0
   -3.2320    1.3235    2.7791 H   0  0  0  0  0  0  0  0  0  0  0  0
   -3.8721    1.4906   -1.3468 H   0  0  0  0  0  0  0  0  0  0  0  0
   -4.2415    2.3335    0.1385 H   0  0  0  0  0  0  0  0  0  0  0  0
   -4.9607    0.7739   -0.1830 H   0  0  0  0  0  0  0  0  0  0  0  0
  1  6  1  0  0  0  0
  1  7  1  0  0  0  0
  1 11  1  0  0  0  0
  1 12  1  0  0  0  0
  2  6  1  0  0  0  0
  2  8  1  0  0  0  0
  2 13  1  0  0  0  0
  2 14  1  0  0  0  0
  3  7  1  0  0  0  0
  3  9  1  0  0  0  0
  3 15  1  0  0  0  0
  3 16  1  0  0  0  0
  4  8  1  0  0  0  0
  4 10  1  0  0  0  0
  4 17  1  0  0  0  0
  4 18  1  0  0  0  0
  5  9  1  0  0  0  0
  5 10  1  0  0  0  0
  5 19  1  0  0  0  0
  5 20  1  0  0  0  0
 11 21  1  0  0  0  0
 11 22  1  0  0  0  0
 11 23  1  0  0  0  0
 12 24  1  0  0  0  0
 12 25  1  0  0  0  0
 12 26  1  0  0  0  0
 13 27  1  0  0  0  0
 13 28  1  0  0  0  0
 13 29  1  0  0  0  0
 14 30  1  0  0  0  0
 14 31  1  0  0  0  0
 14 32  1  0  0  0  0
 15 33  1  0  0  0  0
 15 34  1  0  0  0  0
 15 35  1  0  0  0  0
 16 36  1  0  0  0  0
 16 37  1  0  0  0  0
 16 38  1  0  0  0  0
 17 39  1  0  0  0  0
 17 40  1  0  0  0  0
 17 41  1  0  0  0  0
 18 42  1  0  0  0  0
 18 43  1  0  0  0  0
 18 44  1  0  0  0  0
 19 45  1  0  0  0  0
 19 46  1  0  0  0  0
 19 47  1  0  0  0  0
 20 48  1  0  0  0  0
 20 49  1  0  0  0  0
 20 50  1  0  0  0  0
M  END
>  <PUBCHEM_COMPOUND_CID>
10913

>  <PUBCHEM_CONFORMER_RMSD>
0.6

>  <PUBCHEM_CONFORMER_DIVERSEORDER>
1
2
3

>  <PUBCHEM_MMFF94_PARTIAL_CHARGES>
20
1 0.76
10 -0.59
11 -0.08
12 -0.08
13 -0.08
14 -0.08
15 -0.08
16 -0.08
17 -0.08
18 -0.08
19 -0.08
2 0.76
20 -0.08
3 0.76
4 0.76
5 0.76
6 -0.59
7 -0.59
8 -0.59
9 -0.59

>  <PUBCHEM_EFFECTIVE_ROTOR_COUNT>
2

>  <PUBCHEM_PHARMACOPHORE_FEATURES>
0

>  <PUBCHEM_HEAVY_ATOM_COUNT>
20

>  <PUBCHEM_ATOM_DEF_STEREO_COUNT>
0

>  <PUBCHEM_ATOM_UDEF_STEREO_COUNT>
0

>  <PUBCHEM_BOND_DEF_STEREO_COUNT>
0

>  <PUBCHEM_BOND_UDEF_STEREO_COUNT>
0

>  <PUBCHEM_ISOTOPIC_ATOM_COUNT>
0

>  <PUBCHEM_COMPONENT_COUNT>
1

>  <PUBCHEM_CACTVS_TAUTO_COUNT>
1

>  <PUBCHEM_CONFORMER_ID>
00002AA100000001

>  <PUBCHEM_MMFF94_ENERGY>
-1.191

>  <PUBCHEM_FEATURE_SELFOVERLAP>
0

>  <PUBCHEM_SHAPE_FINGERPRINT>
10064457 181 18059315230235028937
10366900 7 17900838045689710547
10382601 240 18408893949086305624
104564 63 18050843626365861940
11370993 70 18270673276742952017
12156800 1 13853290943247105303
12596599 1 17702381745879054295
12633257 1 18129666292185159938
13140716 1 18337107990249829040
14142880 1 18124857208640112276
14178342 30 18125172764256163553
14251745 187 18046912576033893001
16945 1 18409177614079735256
20600515 1 17750786847633327838
20691752 17 18113896040015981515
20905425 154 18271524320465548422
2334 1 17978795936686172316
23557571 272 17342387615639924647
238 59 17906986522938367221
2748010 2 18264210214361505813
2818148 4 17470784112481200199
35225 105 17845354699960587817
3524813 1 17977676311631486735
568465 68 17766267683520662744
81228 2 18338794636597197859
9925002 15 16473455812876236118

>  <PUBCHEM_SHAPE_MULTIPOLES>
473.31
5.48
4.98
2.05
0.1
0.77
-0.17
-1.31
-1.55
0.25
1.34
-0.19
0.16
0.85

>  <PUBCHEM_SHAPE_SELFOVERLAP>
833.314

>  <PUBCHEM_SHAPE_VOLUME>
308.1

>  <PUBCHEM_COORDINATE_TYPE>
2
5
10

>  <Energy>
-142.072

$$$$
