228944
 OpenBabel06182610193D

 43 46  0  0  1  0  0  0  0  0999 V2000
    4.7651    1.1232    0.2118 O   0  0  0  0  0  0  0  0  0  0  0  0
    2.3626    0.5747    0.1313 C   0  0  1  0  0  0  0  0  0  0  0  0
    1.6643   -0.6983   -0.3876 C   0  0  2  0  0  0  0  0  0  0  0  0
    0.2023   -0.7741    0.0517 C   0  0  1  0  0  0  0  0  0  0  0  0
   -0.5607    0.4492   -0.5411 C   0  0  2  0  0  0  0  0  0  0  0  0
    3.7825    0.3173   -0.4086 C   0  0  2  0  0  0  0  0  0  0  0  0
    1.6518    1.7900   -0.4765 C   0  0  0  0  0  0  0  0  0  0  0  0
    2.6234   -1.8168    0.0100 C   0  0  0  0  0  0  0  0  0  0  0  0
    0.1417    1.7831   -0.1705 C   0  0  0  0  0  0  0  0  0  0  0  0
    4.0181   -1.1817   -0.1384 C   0  0  0  0  0  0  0  0  0  0  0  0
   -0.4844   -2.0605   -0.4112 C   0  0  0  0  0  0  0  0  0  0  0  0
    2.3911    0.7176    1.6746 C   0  0  0  0  0  0  0  0  0  0  0  0
   -2.0493    0.3872   -0.2066 C   0  0  0  0  0  0  0  0  0  0  0  0
   -1.8890   -2.1387    0.1792 C   0  0  0  0  0  0  0  0  0  0  0  0
   -2.6670   -0.8479    0.0879 C   0  0  0  0  0  0  0  0  0  0  0  0
   -2.8581    1.5355   -0.2721 C   0  0  0  0  0  0  0  0  0  0  0  0
   -4.0455   -0.8941    0.3605 C   0  0  0  0  0  0  0  0  0  0  0  0
   -4.2281    1.4740   -0.0082 C   0  0  0  0  0  0  0  0  0  0  0  0
   -4.8213    0.2602    0.3131 C   0  0  0  0  0  0  0  0  0  0  0  0
    4.5853    2.0570    0.0206 H   0  0  0  0  0  0  0  0  0  0  0  0
    1.5150   -0.7499   -1.4458 H   0  0  0  0  0  0  0  0  0  0  0  0
    0.1822   -0.7670    1.1214 H   0  0  0  0  0  0  0  0  0  0  0  0
   -0.5188    0.4061   -1.6094 H   0  0  0  0  0  0  0  0  0  0  0  0
    3.8620    0.5705   -1.4452 H   0  0  0  0  0  0  0  0  0  0  0  0
    1.7902    1.7772   -1.5374 H   0  0  0  0  0  0  0  0  0  0  0  0
    2.0744    2.6727   -0.0438 H   0  0  0  0  0  0  0  0  0  0  0  0
    2.5173   -2.6585   -0.6421 H   0  0  0  0  0  0  0  0  0  0  0  0
    2.4410   -2.1838    0.9984 H   0  0  0  0  0  0  0  0  0  0  0  0
    0.0078    1.9564    0.8768 H   0  0  0  0  0  0  0  0  0  0  0  0
   -0.3036    2.5495   -0.7698 H   0  0  0  0  0  0  0  0  0  0  0  0
    4.5824   -1.3120    0.7613 H   0  0  0  0  0  0  0  0  0  0  0  0
    4.5715   -1.6384   -0.9321 H   0  0  0  0  0  0  0  0  0  0  0  0
    0.0858   -2.9048   -0.0841 H   0  0  0  0  0  0  0  0  0  0  0  0
   -0.5498   -2.0611   -1.4792 H   0  0  0  0  0  0  0  0  0  0  0  0
    2.8865   -0.1289    2.1022 H   0  0  0  0  0  0  0  0  0  0  0  0
    1.3891    0.7699    2.0465 H   0  0  0  0  0  0  0  0  0  0  0  0
    2.9172    1.6106    1.9405 H   0  0  0  0  0  0  0  0  0  0  0  0
   -1.8056   -2.4088    1.2111 H   0  0  0  0  0  0  0  0  0  0  0  0
   -2.4259   -2.8646   -0.3950 H   0  0  0  0  0  0  0  0  0  0  0  0
   -2.4310    2.4416   -0.5202 H   0  0  0  0  0  0  0  0  0  0  0  0
   -4.4876   -1.7956    0.5989 H   0  0  0  0  0  0  0  0  0  0  0  0
   -4.8003    2.3317   -0.0519 H   0  0  0  0  0  0  0  0  0  0  0  0
   -5.8322    0.2145    0.5156 H   0  0  0  0  0  0  0  0  0  0  0  0
  1  6  1  0  0  0  0
  1 20  1  0  0  0  0
  2  3  1  0  0  0  0
  2  6  1  0  0  0  0
  2  7  1  0  0  0  0
  2 12  1  1  0  0  0
  3  4  1  0  0  0  0
  3  8  1  0  0  0  0
  3 21  1  6  0  0  0
  4  5  1  0  0  0  0
  4 11  1  0  0  0  0
  4 22  1  1  0  0  0
  5  9  1  0  0  0  0
  5 13  1  0  0  0  0
  5 23  1  6  0  0  0
  6 10  1  0  0  0  0
  6 24  1  6  0  0  0
  7  9  1  0  0  0  0
  7 25  1  0  0  0  0
  7 26  1  0  0  0  0
  8 10  1  0  0  0  0
  8 27  1  0  0  0  0
  8 28  1  0  0  0  0
  9 29  1  0  0  0  0
  9 30  1  0  0  0  0
 10 31  1  0  0  0  0
 10 32  1  0  0  0  0
 11 14  1  0  0  0  0
 11 33  1  0  0  0  0
 11 34  1  0  0  0  0
 12 35  1  0  0  0  0
 12 36  1  0  0  0  0
 12 37  1  0  0  0  0
 13 15  1  0  0  0  0
 13 16  2  0  0  0  0
 14 15  1  0  0  0  0
 14 38  1  0  0  0  0
 14 39  1  0  0  0  0
 15 17  2  0  0  0  0
 16 18  1  0  0  0  0
 16 40  1  0  0  0  0
 17 19  1  0  0  0  0
 17 41  1  0  0  0  0
 18 19  2  0  0  0  0
 18 42  1  0  0  0  0
 19 43  1  0  0  0  0
M  END
>  <PUBCHEM_COMPOUND_CID>
228944

>  <PUBCHEM_CONFORMER_RMSD>
0.6

>  <PUBCHEM_CONFORMER_DIVERSEORDER>
1

>  <PUBCHEM_MMFF94_PARTIAL_CHARGES>
15
1 -0.68
13 -0.14
14 0.14
15 -0.14
16 -0.15
17 -0.15
18 -0.15
19 -0.15
39 0.4
40 0.15
41 0.15
42 0.15
43 0.15
5 0.14
6 0.28

>  <PUBCHEM_EFFECTIVE_ROTOR_COUNT>
1.4

>  <PUBCHEM_PHARMACOPHORE_FEATURES>
6
1 1 acceptor
1 1 donor
5 2 3 6 8 10 rings
6 13 15 16 17 18 19 rings
6 2 3 4 5 7 9 rings
6 4 5 11 13 14 15 rings

>  <PUBCHEM_HEAVY_ATOM_COUNT>
19

>  <PUBCHEM_ATOM_DEF_STEREO_COUNT>
5

>  <PUBCHEM_ATOM_UDEF_STEREO_COUNT>
0

>  <PUBCHEM_BOND_DEF_STEREO_COUNT>
0

>  <PUBCHEM_BOND_UDEF_STEREO_COUNT>
0

>  <PUBCHEM_ISOTOPIC_ATOM_COUNT>
0

>  <PUBCHEM_COMPONENT_COUNT>
1

>  <PUBCHEM_CACTVS_TAUTO_COUNT>
1

>  <PUBCHEM_CONFORMER_ID>
00037E5000000001

>  <PUBCHEM_MMFF94_ENERGY>
66.3839

>  <PUBCHEM_FEATURE_SELFOVERLAP>
30.544

>  <PUBCHEM_SHAPE_FINGERPRINT>
10411042 1 16680909940629422807
10608611 8 18412542136740339665
10616163 171 18338239391556512871
10967382 1 18337954493437749495
11132069 177 18408318887140551157
11471102 20 18411980243517632926
11578080 2 17129855277891990803
12011746 2 18411421682883631815
12236239 1 17530684320936071708
12251169 10 18335702771202429445
12403259 226 18340482370171873857
12403259 415 18411135801745612021
12403814 3 17530961393265466189
12500047 106 18342734152093384026
12788726 201 17703518683693943264
128620 24 11674878896403956001
13134695 92 16200434680597678704
13140716 1 18120935272054191424
13221675 6 18261110794045806735
13544592 145 18272380732907847142
13675066 3 18341894112498824201
14004511 7 18272937102907703313
14178342 30 18124013883549006786
14341114 176 18410022013609257241
14790565 3 18048042054181659036
14866123 147 16975064523331637554
15196674 1 18410013217136485239
15219456 202 18412545396625889638
15256400 18 18338801117660279197
15295992 7 17918273181775339339
15375358 24 18341894090992391230
15375462 189 17749098985399036664
15442244 35 18409449171881981438
15536298 74 18413672396118148062
1601671 61 18409169917809850092
16945 1 18266451186420011631
17804303 29 18410579487268405509
1813 80 16950566575346253964
18186145 218 18202007599078057083
192875 21 13758075216087697338
19591789 44 18265051327771807551
200 152 18131344216360681885
20510252 161 18342177730812292089
20645477 70 18130227060469534726
21033648 29 18202271503359800561
21249577 43 18410575063488922855
21267235 1 18337401460854270230
21421861 104 17823406107661486506
21501502 16 18192433188967009775
22892500 29 17346589799010240736
23184049 59 18410857642177380575
23402539 116 18343576335087413639
23463225 33 18407761421570184207
23558518 356 17754457081491200777
23559900 14 18341050731699620750
2748010 2 18337950078443426039
296302 2 18411140242229696892
335352 9 18265896860739912982
34934 24 18410007758575923862
350125 39 18410299142327224341
3545911 37 18411985766687352348
4214541 1 18409450267420453725
474 4 16734121230714169732
495365 180 17417797453258696266
5104073 3 18409449167581707730
53812653 166 18413387626843408098
69090 78 18342173375831426911
7364860 26 18266743665456843188
77779 3 18409732845961029903
7832392 63 18340483460470990454
8809292 202 18333737922438448139
9709674 26 18410863186996503663
9981440 41 17107634280965380840

>  <PUBCHEM_SHAPE_MULTIPOLES>
385.14
8.7
2.18
0.84
1.64
0.38
0.23
-1.14
0.78
0.14
-0.13
-0.35
-0.12
0.33

>  <PUBCHEM_SHAPE_SELFOVERLAP>
837.847

>  <PUBCHEM_SHAPE_VOLUME>
209.1

>  <PUBCHEM_COORDINATE_TYPE>
2
5
10

>  <Energy>
69.1083

$$$$
