11302
 OpenBabel06182610193D

 51 54  0  0  1  0  0  0  0  0999 V2000
   -4.9356   -1.1339   -0.6497 O   0  0  0  0  0  0  0  0  0  0  0  0
    4.9371   -0.1323   -1.7185 O   0  0  0  0  0  0  0  0  0  0  0  0
   -0.5025    0.8229    0.4491 C   0  0  2  0  0  0  0  0  0  0  0  0
    0.3922   -0.4280    0.1679 C   0  0  1  0  0  0  0  0  0  0  0  0
   -1.7853    0.7039   -0.3812 C   0  0  1  0  0  0  0  0  0  0  0  0
   -2.6002   -0.5593   -0.0379 C   0  0  2  0  0  0  0  0  0  0  0  0
    1.7535   -0.3623    0.9539 C   0  0  2  0  0  0  0  0  0  0  0  0
    2.4847    0.9817    0.6171 C   0  0  2  0  0  0  0  0  0  0  0  0
   -0.3912   -1.7554    0.3578 C   0  0  0  0  0  0  0  0  0  0  0  0
   -1.7418   -1.7835   -0.3829 C   0  0  0  0  0  0  0  0  0  0  0  0
    0.2463    2.1268    0.1429 C   0  0  0  0  0  0  0  0  0  0  0  0
   -2.8196    1.8247   -0.3171 C   0  0  0  0  0  0  0  0  0  0  0  0
   -3.8114   -0.3356   -0.9666 C   0  0  2  0  0  0  0  0  0  0  0  0
    1.5887    2.2070    0.8658 C   0  0  0  0  0  0  0  0  0  0  0  0
   -4.1121    1.1717   -0.8395 C   0  0  0  0  0  0  0  0  0  0  0  0
    2.7110   -1.5389    0.6025 C   0  0  0  0  0  0  0  0  0  0  0  0
   -3.0586   -0.6513    1.4392 C   0  0  0  0  0  0  0  0  0  0  0  0
    1.5194   -0.4488    2.4855 C   0  0  0  0  0  0  0  0  0  0  0  0
    3.0425    1.0240   -0.8182 C   0  0  0  0  0  0  0  0  0  0  0  0
    3.2094   -1.5327   -0.8337 C   0  0  0  0  0  0  0  0  0  0  0  0
    3.8567   -0.2062   -1.1352 C   0  0  0  0  0  0  0  0  0  0  0  0
   -4.7032   -2.0711   -0.7424 H   0  0  0  0  0  0  0  0  0  0  0  0
   -0.7545    0.8545    1.4885 H   0  0  0  0  0  0  0  0  0  0  0  0
    0.6651   -0.4113   -0.8666 H   0  0  0  0  0  0  0  0  0  0  0  0
   -1.3401    0.7128   -1.3541 H   0  0  0  0  0  0  0  0  0  0  0  0
    3.3164    1.0226    1.2890 H   0  0  0  0  0  0  0  0  0  0  0  0
   -0.5751   -1.8936    1.4028 H   0  0  0  0  0  0  0  0  0  0  0  0
    0.2105   -2.5378   -0.0553 H   0  0  0  0  0  0  0  0  0  0  0  0
   -1.5595   -1.7939   -1.4372 H   0  0  0  0  0  0  0  0  0  0  0  0
   -2.2726   -2.6612   -0.0784 H   0  0  0  0  0  0  0  0  0  0  0  0
   -0.3604    2.9526    0.4509 H   0  0  0  0  0  0  0  0  0  0  0  0
    0.4387    2.1546   -0.9093 H   0  0  0  0  0  0  0  0  0  0  0  0
   -2.5299    2.6452   -0.9398 H   0  0  0  0  0  0  0  0  0  0  0  0
   -2.9309    2.2255    0.6687 H   0  0  0  0  0  0  0  0  0  0  0  0
   -3.5857   -0.6315   -1.9698 H   0  0  0  0  0  0  0  0  0  0  0  0
    2.1056    3.0806    0.5274 H   0  0  0  0  0  0  0  0  0  0  0  0
    1.3832    2.2431    1.9153 H   0  0  0  0  0  0  0  0  0  0  0  0
   -4.3744    1.5794   -1.7933 H   0  0  0  0  0  0  0  0  0  0  0  0
   -4.9343    1.3509   -0.1786 H   0  0  0  0  0  0  0  0  0  0  0  0
    2.1893   -2.4576    0.7721 H   0  0  0  0  0  0  0  0  0  0  0  0
    3.5733   -1.4289    1.2265 H   0  0  0  0  0  0  0  0  0  0  0  0
   -2.2068   -0.8063    2.0680 H   0  0  0  0  0  0  0  0  0  0  0  0
   -3.7384   -1.4700    1.5513 H   0  0  0  0  0  0  0  0  0  0  0  0
   -3.5471    0.2588    1.7184 H   0  0  0  0  0  0  0  0  0  0  0  0
    0.8640    0.3397    2.7912 H   0  0  0  0  0  0  0  0  0  0  0  0
    2.4552   -0.3526    2.9953 H   0  0  0  0  0  0  0  0  0  0  0  0
    1.0777   -1.3932    2.7260 H   0  0  0  0  0  0  0  0  0  0  0  0
    3.6643    1.8884   -0.9236 H   0  0  0  0  0  0  0  0  0  0  0  0
    2.2162    1.0620   -1.4970 H   0  0  0  0  0  0  0  0  0  0  0  0
    2.3848   -1.6862   -1.4980 H   0  0  0  0  0  0  0  0  0  0  0  0
    3.9252   -2.3169   -0.9661 H   0  0  0  0  0  0  0  0  0  0  0  0
  1 13  1  0  0  0  0
  1 22  1  0  0  0  0
  2 21  2  0  0  0  0
  3  4  1  0  0  0  0
  3  5  1  0  0  0  0
  3 11  1  0  0  0  0
  3 23  1  1  0  0  0
  4  7  1  0  0  0  0
  4  9  1  0  0  0  0
  4 24  1  6  0  0  0
  5  6  1  0  0  0  0
  5 12  1  0  0  0  0
  5 25  1  6  0  0  0
  6 10  1  0  0  0  0
  6 13  1  0  0  0  0
  6 17  1  1  0  0  0
  7  8  1  0  0  0  0
  7 16  1  0  0  0  0
  7 18  1  1  0  0  0
  8 14  1  0  0  0  0
  8 19  1  0  0  0  0
  8 26  1  1  0  0  0
  9 10  1  0  0  0  0
  9 27  1  0  0  0  0
  9 28  1  0  0  0  0
 10 29  1  0  0  0  0
 10 30  1  0  0  0  0
 11 14  1  0  0  0  0
 11 31  1  0  0  0  0
 11 32  1  0  0  0  0
 12 15  1  0  0  0  0
 12 33  1  0  0  0  0
 12 34  1  0  0  0  0
 13 15  1  0  0  0  0
 13 35  1  6  0  0  0
 14 36  1  0  0  0  0
 14 37  1  0  0  0  0
 15 38  1  0  0  0  0
 15 39  1  0  0  0  0
 16 20  1  0  0  0  0
 16 40  1  0  0  0  0
 16 41  1  0  0  0  0
 17 42  1  0  0  0  0
 17 43  1  0  0  0  0
 17 44  1  0  0  0  0
 18 45  1  0  0  0  0
 18 46  1  0  0  0  0
 18 47  1  0  0  0  0
 19 21  1  0  0  0  0
 19 48  1  0  0  0  0
 19 49  1  0  0  0  0
 20 21  1  0  0  0  0
 20 50  1  0  0  0  0
 20 51  1  0  0  0  0
M  END
>  <PUBCHEM_COMPOUND_CID>
11302

>  <PUBCHEM_CONFORMER_RMSD>
0.6

>  <PUBCHEM_CONFORMER_DIVERSEORDER>
1
2

>  <PUBCHEM_MMFF94_PARTIAL_CHARGES>
7
1 -0.68
13 0.28
19 0.06
2 -0.57
20 0.06
21 0.45
51 0.4

>  <PUBCHEM_EFFECTIVE_ROTOR_COUNT>
2

>  <PUBCHEM_PHARMACOPHORE_FEATURES>
7
1 1 acceptor
1 1 donor
1 2 acceptor
5 5 6 12 13 15 rings
6 3 4 5 6 9 10 rings
6 3 4 7 8 11 14 rings
6 7 8 16 19 20 21 rings

>  <PUBCHEM_HEAVY_ATOM_COUNT>
21

>  <PUBCHEM_ATOM_DEF_STEREO_COUNT>
7

>  <PUBCHEM_ATOM_UDEF_STEREO_COUNT>
0

>  <PUBCHEM_BOND_DEF_STEREO_COUNT>
0

>  <PUBCHEM_BOND_UDEF_STEREO_COUNT>
0

>  <PUBCHEM_ISOTOPIC_ATOM_COUNT>
0

>  <PUBCHEM_COMPONENT_COUNT>
1

>  <PUBCHEM_CACTVS_TAUTO_COUNT>
3

>  <PUBCHEM_CONFORMER_ID>
00002C2600000001

>  <PUBCHEM_MMFF94_ENERGY>
73.9677

>  <PUBCHEM_FEATURE_SELFOVERLAP>
35.655

>  <PUBCHEM_SHAPE_FINGERPRINT>
10366900 7 17968379043597880483
10498660 4 17894622639354213117
10759866 29 17676767565626083040
10863032 1 17095249098558290994
10967382 1 18338222890618910425
11578080 2 17131821024315115624
11961588 58 17604150444924109452
12236239 1 17822283557818467738
12553582 1 18272097067233726890
12788726 201 18055924186341606936
12892183 10 10951767422577297206
13134695 92 16343701053975641632
13140716 1 18265884783566391169
13221675 6 18336263539159503147
13224815 77 18113897173797508009
13296908 3 18412255134388658497
13544653 18 16271654373829193348
14289901 80 15647044937619014009
14790565 3 17765726719347723921
15163728 17 16372390495447658847
15196674 1 18410565176606225629
15238133 3 17896867786010348945
15536298 74 18272642489246492425
15635459 17 18412260670353472669
16752209 62 18339913810584943169
16945 1 18264766734595715929
1813 80 14189585126441612992
18186145 218 18131347514341644683
19862831 5 18409730642558566988
200 152 16917356917867451222
20233049 118 18335134276583411420
20645476 183 17676490561847821731
20645477 70 18201152251735212604
20871999 31 18410581664616273662
21069387 34 14979950371964007406
21637258 2 15841276935520801270
21756936 100 11676321499453998206
221357 26 18341891892333178221
22182313 1 18195816399594776170
22907989 373 17896021175474841437
2334 1 18409158922477151673
23402539 116 18339924818981495622
23493267 7 17967257481164856139
23557571 272 18201710748376935568
23559900 14 18202273727783639560
2748010 2 18337659901857965065
2838139 119 16009610095654042228
296302 2 14129059222707665749
3004659 81 18262520269928458534
3323516 105 18413108380954737212
474 4 16298396789775820614
4990 188 18343019990788379756
7364860 26 18129936918238297016
74978 22 18343015627228226883
9709674 26 18269547415738409927
9981440 41 17393616096520800388

>  <PUBCHEM_SHAPE_MULTIPOLES>
420.43
8.1
2.1
1.49
1.92
0.46
-0.51
-0.87
3.88
0.07
-0.1
-1.01
-0.19
0.29

>  <PUBCHEM_SHAPE_SELFOVERLAP>
895.307

>  <PUBCHEM_SHAPE_VOLUME>
231.7

>  <PUBCHEM_COORDINATE_TYPE>
2
5
10

>  <Energy>
74.0309

$$$$
