5383
 OpenBabel07292612043D

 31 31  0  0  0  0  0  0  0  0999 V2000
   -0.8589   -1.3120   -0.0138 S   0  0  0  0  0  0  0  0  0  0  0  0
    4.1009   -0.7345   -0.0313 O   0  0  0  0  0  0  0  0  0  0  0  0
   -1.0612    1.2257   -0.0424 N   0  0  0  0  0  0  0  0  0  0  0  0
    1.8084   -0.9563   -0.0100 N   0  0  0  0  0  0  0  0  0  0  0  0
    0.2897    0.9519   -0.0452 N   0  0  0  0  0  0  0  0  0  0  0  0
    2.8776    1.1558    0.0639 N   0  0  0  0  0  0  0  0  0  0  0  0
   -3.3191    0.1032    0.0052 C   0  0  0  0  0  0  0  0  0  0  0  0
   -1.7980    0.1325   -0.0189 C   0  0  0  0  0  0  0  0  0  0  0  0
   -3.8757    1.5421    0.0254 C   0  0  0  0  0  0  0  0  0  0  0  0
   -3.8236   -0.6211    1.2680 C   0  0  0  0  0  0  0  0  0  0  0  0
   -3.8656   -0.6023   -1.2500 C   0  0  0  0  0  0  0  0  0  0  0  0
    0.5544   -0.3375   -0.0204 C   0  0  0  0  0  0  0  0  0  0  0  0
    1.9599   -2.4087   -0.0163 C   0  0  0  0  0  0  0  0  0  0  0  0
    2.9864   -0.2069   -0.0021 C   0  0  0  0  0  0  0  0  0  0  0  0
    4.0342    2.0110    0.0085 C   0  0  0  0  0  0  0  0  0  0  0  0
    1.9850    1.5618    0.1515 H   0  0  0  0  0  0  0  0  0  0  0  0
   -3.5092    2.0541    0.8906 H   0  0  0  0  0  0  0  0  0  0  0  0
   -4.9448    1.5106    0.0558 H   0  0  0  0  0  0  0  0  0  0  0  0
   -3.5590    2.0594   -0.8560 H   0  0  0  0  0  0  0  0  0  0  0  0
   -3.4422   -0.1287    2.1380 H   0  0  0  0  0  0  0  0  0  0  0  0
   -3.4857   -1.6363    1.2558 H   0  0  0  0  0  0  0  0  0  0  0  0
   -4.8932   -0.6015    1.2870 H   0  0  0  0  0  0  0  0  0  0  0  0
   -3.5135   -0.0970   -2.1249 H   0  0  0  0  0  0  0  0  0  0  0  0
   -4.9353   -0.5827   -1.2329 H   0  0  0  0  0  0  0  0  0  0  0  0
   -3.5277   -1.6175   -1.2641 H   0  0  0  0  0  0  0  0  0  0  0  0
    0.9936   -2.8681   -0.0221 H   0  0  0  0  0  0  0  0  0  0  0  0
    2.4954   -2.7153    0.8578 H   0  0  0  0  0  0  0  0  0  0  0  0
    2.5018   -2.7070   -0.8894 H   0  0  0  0  0  0  0  0  0  0  0  0
    4.9161    1.4126   -0.0864 H   0  0  0  0  0  0  0  0  0  0  0  0
    4.0919    2.5915    0.9055 H   0  0  0  0  0  0  0  0  0  0  0  0
    3.9543    2.6648   -0.8349 H   0  0  0  0  0  0  0  0  0  0  0  0
  1  8  1  0  0  0  0
  1 12  1  0  0  0  0
  2 14  2  0  0  0  0
  3  5  1  0  0  0  0
  3  8  2  0  0  0  0
  4 12  1  0  0  0  0
  4 13  1  0  0  0  0
  4 14  1  0  0  0  0
  5 12  2  0  0  0  0
  6 14  1  0  0  0  0
  6 15  1  0  0  0  0
  6 16  1  0  0  0  0
  7  8  1  0  0  0  0
  7  9  1  0  0  0  0
  7 10  1  0  0  0  0
  7 11  1  0  0  0  0
  9 17  1  0  0  0  0
  9 18  1  0  0  0  0
  9 19  1  0  0  0  0
 10 20  1  0  0  0  0
 10 21  1  0  0  0  0
 10 22  1  0  0  0  0
 11 23  1  0  0  0  0
 11 24  1  0  0  0  0
 11 25  1  0  0  0  0
 13 26  1  0  0  0  0
 13 27  1  0  0  0  0
 13 28  1  0  0  0  0
 15 29  1  0  0  0  0
 15 30  1  0  0  0  0
 15 31  1  0  0  0  0
M  END
>  <PUBCHEM_COMPOUND_CID>
5383

>  <PUBCHEM_CONFORMER_RMSD>
0.6

>  <PUBCHEM_CONFORMER_DIVERSEORDER>
1
14
5
6
15
4
13
3
8
12
2
10
7
11
9

>  <PUBCHEM_MMFF94_PARTIAL_CHARGES>
13
1 -0.08
12 0.44
13 0.3
14 0.69
15 0.3
2 -0.57
28 0.37
3 -0.34
4 -0.42
5 -0.34
6 -0.73
7 0.18
8 0.2

>  <PUBCHEM_EFFECTIVE_ROTOR_COUNT>
4

>  <PUBCHEM_PHARMACOPHORE_FEATURES>
5
1 2 acceptor
1 3 acceptor
1 6 donor
4 7 9 10 11 hydrophobe
5 1 3 5 8 12 rings

>  <PUBCHEM_HEAVY_ATOM_COUNT>
15

>  <PUBCHEM_ATOM_DEF_STEREO_COUNT>
0

>  <PUBCHEM_ATOM_UDEF_STEREO_COUNT>
0

>  <PUBCHEM_BOND_DEF_STEREO_COUNT>
0

>  <PUBCHEM_BOND_UDEF_STEREO_COUNT>
0

>  <PUBCHEM_ISOTOPIC_ATOM_COUNT>
0

>  <PUBCHEM_COMPONENT_COUNT>
1

>  <PUBCHEM_CACTVS_TAUTO_COUNT>
2

>  <PUBCHEM_CONFORMER_ID>
0000150700000001

>  <PUBCHEM_MMFF94_ENERGY>
40.4858

>  <PUBCHEM_FEATURE_SELFOVERLAP>
25.371

>  <PUBCHEM_SHAPE_FINGERPRINT>
10014705 185 18334007264665557533
10608611 8 18335700511844176197
10980938 120 18342173375593770666
11132069 177 18343574153354861762
11471102 20 18410570695501992580
11543360 7 15769495447070241088
11615757 297 17989490722885574689
12932764 1 17632287978387125163
13296908 3 18187933845968935475
13380535 76 18408601495925662330
13583140 156 16805870909555473825
13760787 5 18342175578969983333
14144814 61 18409450275920574705
14251717 144 18412537730256900934
14289901 80 18343861095935684155
14325111 11 18410856542718487169
14415576 193 18409451379795943012
14897335 6 18339357569438717620
15196674 1 18410855473018364416
15219456 202 18334580152450114969
15309172 13 18272938206640841535
15375358 24 18259701198948991691
15375462 189 18130788958192709675
15442244 35 18052258384266561616
15536298 74 18342458145037309124
16945 1 18410856572656735651
17834072 33 18272082816912079429
18186145 218 17603587387459511275
19026448 4 17313100860649934955
19026448 5 17346884454930261571
19050596 39 18411139099831797273
19422 9 17846499222834842599
200 152 18201712934146082143
20279233 1 18040719147604801931
20281475 54 18201432554465432591
204376 136 18337392772235241392
20645477 70 18270394993174803871
22854114 111 18409446986144482900
23402539 116 18272079470747446950
23402655 69 18271524217101360269
23532345 1 18408882927836356607
23557571 272 16950565446102281287
23559900 14 18266455417374677090
25610 137 18411142445732835009
449060 62 18413392046702456752
4990 188 17846789511527478628
5104073 3 18408324380076838473
57096353 35 18272083941681944741
58051976 378 18270957938590294318
581208 293 18413383237634874834
633830 44 18410857637755786911
7364860 26 18341332180885577942
9709674 26 18410860914805855663

>  <PUBCHEM_SHAPE_MULTIPOLES>
286.75
8.37
2
0.82
0.92
0.14
0
-2.14
0.05
1.49
0
-0.86
0.14
0.01

>  <PUBCHEM_SHAPE_SELFOVERLAP>
562.638

>  <PUBCHEM_SHAPE_VOLUME>
176.8

>  <PUBCHEM_COORDINATE_TYPE>
2
5
10

>  <Energy>
-60.9165

$$$$
