441302
 OpenBabel07292612043D

 51 54  0  0  1  0  0  0  0  0999 V2000
    5.8941   -0.0198   -0.2219 O   0  0  0  0  0  0  0  0  0  0  0  0
   -5.0198   -1.1212   -0.6666 O   0  0  0  0  0  0  0  0  0  0  0  0
    0.1451   -0.4393   -0.2699 C   0  0  2  0  0  0  0  0  0  0  0  0
    1.6445   -0.4099    0.2072 C   0  0  2  0  0  0  0  0  0  0  0  0
   -0.6622    0.7897    0.2679 C   0  0  2  0  0  0  0  0  0  0  0  0
   -2.0871    0.7019   -0.2865 C   0  0  1  0  0  0  0  0  0  0  0  0
    2.2529    0.9548   -0.2526 C   0  0  1  0  0  0  0  0  0  0  0  0
   -2.8032   -0.5825    0.1799 C   0  0  2  0  0  0  0  0  0  0  0  0
   -0.5882   -1.7834   -0.0075 C   0  0  0  0  0  0  0  0  0  0  0  0
    0.0156    2.1123   -0.1142 C   0  0  0  0  0  0  0  0  0  0  0  0
   -2.0699   -1.7734   -0.4285 C   0  0  0  0  0  0  0  0  0  0  0  0
    1.4834    2.1573    0.3053 C   0  0  0  0  0  0  0  0  0  0  0  0
    2.4595   -1.5447   -0.4762 C   0  0  0  0  0  0  0  0  0  0  0  0
   -3.0876    1.8148    0.0054 C   0  0  0  0  0  0  0  0  0  0  0  0
    3.7547    1.0667    0.0389 C   0  0  0  0  0  0  0  0  0  0  0  0
    1.7374   -0.5989    1.7432 C   0  0  0  0  0  0  0  0  0  0  0  0
   -4.1825   -0.2773   -0.3763 C   0  0  0  0  0  0  0  0  0  0  0  0
    3.9675   -1.4438   -0.2359 C   0  0  0  0  0  0  0  0  0  0  0  0
   -4.4115    1.2200   -0.4970 C   0  0  0  0  0  0  0  0  0  0  0  0
    4.5275   -0.0773   -0.6166 C   0  0  2  0  0  0  0  0  0  0  0  0
   -2.9702   -0.7461    1.7019 C   0  0  0  0  0  0  0  0  0  0  0  0
    6.2629    0.8456   -0.4586 H   0  0  0  0  0  0  0  0  0  0  0  0
    0.1907   -0.3588   -1.3359 H   0  0  0  0  0  0  0  0  0  0  0  0
   -0.6924    0.7677    1.3372 H   0  0  0  0  0  0  0  0  0  0  0  0
   -1.8555    0.7571   -1.3297 H   0  0  0  0  0  0  0  0  0  0  0  0
    2.1427    0.9742   -1.3167 H   0  0  0  0  0  0  0  0  0  0  0  0
   -0.5360   -1.9978    1.0395 H   0  0  0  0  0  0  0  0  0  0  0  0
   -0.0995   -2.5272   -0.6016 H   0  0  0  0  0  0  0  0  0  0  0  0
   -0.5036    2.9155    0.3656 H   0  0  0  0  0  0  0  0  0  0  0  0
   -0.0218    2.2019   -1.1798 H   0  0  0  0  0  0  0  0  0  0  0  0
   -2.1301   -1.7137   -1.4951 H   0  0  0  0  0  0  0  0  0  0  0  0
   -2.5302   -2.6730   -0.0767 H   0  0  0  0  0  0  0  0  0  0  0  0
    1.9256    3.0581   -0.0659 H   0  0  0  0  0  0  0  0  0  0  0  0
    1.5330    2.1270    1.3737 H   0  0  0  0  0  0  0  0  0  0  0  0
    2.2811   -1.5021   -1.5304 H   0  0  0  0  0  0  0  0  0  0  0  0
    2.1337   -2.4687   -0.0462 H   0  0  0  0  0  0  0  0  0  0  0  0
   -2.8384    2.7075   -0.5291 H   0  0  0  0  0  0  0  0  0  0  0  0
   -3.1151    2.1010    1.0361 H   0  0  0  0  0  0  0  0  0  0  0  0
    3.9091    1.0319    1.0971 H   0  0  0  0  0  0  0  0  0  0  0  0
    4.1113    1.9923   -0.3623 H   0  0  0  0  0  0  0  0  0  0  0  0
    1.1817    0.1740    2.2319 H   0  0  0  0  0  0  0  0  0  0  0  0
    2.7620   -0.5484    2.0474 H   0  0  0  0  0  0  0  0  0  0  0  0
    1.3326   -1.5526    2.0103 H   0  0  0  0  0  0  0  0  0  0  0  0
    4.4595   -2.1920   -0.8217 H   0  0  0  0  0  0  0  0  0  0  0  0
    4.1411   -1.5873    0.8101 H   0  0  0  0  0  0  0  0  0  0  0  0
   -4.5976    1.4998   -1.5129 H   0  0  0  0  0  0  0  0  0  0  0  0
   -5.2628    1.5617    0.0539 H   0  0  0  0  0  0  0  0  0  0  0  0
    4.4311    0.0413   -1.6756 H   0  0  0  0  0  0  0  0  0  0  0  0
   -2.0202   -0.9637    2.1436 H   0  0  0  0  0  0  0  0  0  0  0  0
   -3.6488   -1.5488    1.9020 H   0  0  0  0  0  0  0  0  0  0  0  0
   -3.3576    0.1605    2.1177 H   0  0  0  0  0  0  0  0  0  0  0  0
  1 20  1  0  0  0  0
  1 22  1  0  0  0  0
  2 17  2  0  0  0  0
  3  4  1  0  0  0  0
  3  5  1  0  0  0  0
  3  9  1  0  0  0  0
  3 23  1  6  0  0  0
  4  7  1  0  0  0  0
  4 13  1  0  0  0  0
  4 16  1  1  0  0  0
  5  6  1  0  0  0  0
  5 10  1  0  0  0  0
  5 24  1  1  0  0  0
  6  8  1  0  0  0  0
  6 14  1  0  0  0  0
  6 25  1  6  0  0  0
  7 12  1  0  0  0  0
  7 15  1  0  0  0  0
  7 26  1  6  0  0  0
  8 11  1  0  0  0  0
  8 17  1  0  0  0  0
  8 21  1  1  0  0  0
  9 11  1  0  0  0  0
  9 27  1  0  0  0  0
  9 28  1  0  0  0  0
 10 12  1  0  0  0  0
 10 29  1  0  0  0  0
 10 30  1  0  0  0  0
 11 31  1  0  0  0  0
 11 32  1  0  0  0  0
 12 33  1  0  0  0  0
 12 34  1  0  0  0  0
 13 18  1  0  0  0  0
 13 35  1  0  0  0  0
 13 36  1  0  0  0  0
 14 19  1  0  0  0  0
 14 37  1  0  0  0  0
 14 38  1  0  0  0  0
 15 20  1  0  0  0  0
 15 39  1  0  0  0  0
 15 40  1  0  0  0  0
 16 41  1  0  0  0  0
 16 42  1  0  0  0  0
 16 43  1  0  0  0  0
 17 19  1  0  0  0  0
 18 20  1  0  0  0  0
 18 44  1  0  0  0  0
 18 45  1  0  0  0  0
 19 46  1  0  0  0  0
 19 47  1  0  0  0  0
 20 48  1  6  0  0  0
 21 49  1  0  0  0  0
 21 50  1  0  0  0  0
 21 51  1  0  0  0  0
M  END
>  <PUBCHEM_COMPOUND_CID>
441302

>  <PUBCHEM_CONFORMER_RMSD>
0.6

>  <PUBCHEM_CONFORMER_DIVERSEORDER>
1

>  <PUBCHEM_MMFF94_PARTIAL_CHARGES>
7
1 -0.68
17 0.45
19 0.06
2 -0.57
20 0.28
51 0.4
8 0.06

>  <PUBCHEM_EFFECTIVE_ROTOR_COUNT>
2

>  <PUBCHEM_PHARMACOPHORE_FEATURES>
7
1 1 acceptor
1 1 donor
1 2 acceptor
5 6 8 14 17 19 rings
6 3 4 5 7 10 12 rings
6 3 5 6 8 9 11 rings
6 4 7 13 15 18 20 rings

>  <PUBCHEM_HEAVY_ATOM_COUNT>
21

>  <PUBCHEM_ATOM_DEF_STEREO_COUNT>
7

>  <PUBCHEM_ATOM_UDEF_STEREO_COUNT>
0

>  <PUBCHEM_BOND_DEF_STEREO_COUNT>
0

>  <PUBCHEM_BOND_UDEF_STEREO_COUNT>
0

>  <PUBCHEM_ISOTOPIC_ATOM_COUNT>
0

>  <PUBCHEM_COMPONENT_COUNT>
1

>  <PUBCHEM_CACTVS_TAUTO_COUNT>
2

>  <PUBCHEM_CONFORMER_ID>
0006BBD600000001

>  <PUBCHEM_MMFF94_ENERGY>
66.543

>  <PUBCHEM_FEATURE_SELFOVERLAP>
35.613

>  <PUBCHEM_SHAPE_FINGERPRINT>
10366900 7 17749104513164273825
10498660 4 18335978671227434293
10967382 1 18411699897953745238
11132069 177 18412821417373845088
11471102 20 18411699911218474788
12011746 2 18408317783392017709
12236239 1 17894910715990815822
12403259 226 18341607179088574889
12403259 415 18131342012673349881
12788726 201 18266736870681697713
13140716 1 18124885804442516691
13221675 6 18408323314961663594
13288520 33 18272373065884509580
13862211 1 18411697682325841318
14790565 3 17548706179419755361
15099037 51 18410855451622655927
15196674 1 18411418384317099708
15309172 13 18343591745757359363
15375358 24 18411700976228095246
15536298 74 18343016722492600408
15788980 27 18409169904887641542
15848702 151 17775295923593509118
1601671 61 18410573951066344244
16752209 62 18410567358323044057
16945 1 18194126432578947153
17349148 13 17704353281764820431
17804303 29 18413108372539168141
1813 80 13830137195930637264
18186145 218 17821725018469249189
19862831 5 18334296456927936820
200 152 17988923370727746773
20645477 70 18337949098974799421
20871999 31 18409165493729407887
21029758 11 18343300357674454145
21267235 1 18411708702663329214
21279426 13 18194402195190944028
21452121 103 18200300139557575456
221357 26 18412258441819581085
221490 88 18264775534978346050
22393880 68 18335408067890081525
23175994 123 17060345127894230264
23402539 116 18342171151011636684
23493267 7 18040999535580000395
23557571 272 18273220776986803956
23559900 14 18272362100828176352
2748010 2 18409443696009863997
2871803 45 18260825994896303812
3004659 81 18261395486860708398
335352 9 18411700945947150716
34934 24 18409726253576562174
350125 39 18411984642239773337
3545911 37 18410857663483340511
4214541 1 18411982446883503917
4340502 62 16443355229955160289
474 4 17386294315088309996
4921388 177 16226342494235826857
5104073 3 18410855438690262480
633830 44 17677050247915878236
69090 78 18343018912772986191
7364860 26 18199464535967990696
9709674 26 18336826515215082939

>  <PUBCHEM_SHAPE_MULTIPOLES>
420.43
9.66
2.1
1
2.72
0.44
0.45
-0.7
-1.76
-0.28
-0.1
-0.21
-0.23
0.19

>  <PUBCHEM_SHAPE_SELFOVERLAP>
895.766

>  <PUBCHEM_SHAPE_VOLUME>
232.8

>  <PUBCHEM_COORDINATE_TYPE>
2
5
10

>  <Energy>
66.678

$$$$
