135461611
 OpenBabel07292612043D

 32 32  0  0  0  0  0  0  0  0999 V2000
   -0.6866    3.3206   -0.0430 O   0  0  0  0  0  0  0  0  0  0  0  0
    2.6228    0.2452    0.1002 N   0  0  0  0  0  0  0  0  0  0  0  0
   -1.8300   -1.0961    0.2396 N   0  0  0  0  0  0  0  0  0  0  0  0
    0.3898   -0.4455    0.1543 N   0  0  0  0  0  0  0  0  0  0  0  0
    0.9173    1.7784    0.0126 N   0  0  0  0  0  0  0  0  0  0  0  0
   -1.3154    1.1467    0.1004 N   0  0  0  0  0  0  0  0  0  0  0  0
    3.1973   -1.0894    0.1386 C   0  0  0  0  0  0  0  0  0  0  0  0
   -3.2637   -0.8916    0.2078 C   0  0  0  0  0  0  0  0  0  0  0  0
    1.2798    0.4834    0.0904 C   0  0  0  0  0  0  0  0  0  0  0  0
    4.6396   -1.0025    0.6304 C   0  0  0  0  0  0  0  0  0  0  0  0
    3.1329   -1.7284   -1.2451 C   0  0  0  0  0  0  0  0  0  0  0  0
   -3.7342   -0.6204   -1.2190 C   0  0  0  0  0  0  0  0  0  0  0  0
   -3.9693   -2.1113    0.7915 C   0  0  0  0  0  0  0  0  0  0  0  0
   -0.9210   -0.0828    0.1595 C   0  0  0  0  0  0  0  0  0  0  0  0
   -0.3892    2.1315    0.0203 C   0  0  0  0  0  0  0  0  0  0  0  0
    3.2342    1.0166    0.0802 H   0  0  0  0  0  0  0  0  0  0  0  0
   -1.4933   -2.0175    0.3235 H   0  0  0  0  0  0  0  0  0  0  0  0
    1.6099    2.4753   -0.0505 H   0  0  0  0  0  0  0  0  0  0  0  0
    2.6374   -1.7030    0.8131 H   0  0  0  0  0  0  0  0  0  0  0  0
   -3.5091   -0.0362    0.8019 H   0  0  0  0  0  0  0  0  0  0  0  0
    5.2081   -0.3902   -0.0381 H   0  0  0  0  0  0  0  0  0  0  0  0
    5.0647   -1.9838    0.6641 H   0  0  0  0  0  0  0  0  0  0  0  0
    4.6571   -0.5724    1.6101 H   0  0  0  0  0  0  0  0  0  0  0  0
    3.6868   -1.1319   -1.9396 H   0  0  0  0  0  0  0  0  0  0  0  0
    2.1128   -1.7902   -1.5623 H   0  0  0  0  0  0  0  0  0  0  0  0
    3.5539   -2.7112   -1.2041 H   0  0  0  0  0  0  0  0  0  0  0  0
   -3.5011   -1.4619   -1.8374 H   0  0  0  0  0  0  0  0  0  0  0  0
   -3.2394    0.2491   -1.5985 H   0  0  0  0  0  0  0  0  0  0  0  0
   -4.7919   -0.4584   -1.2210 H   0  0  0  0  0  0  0  0  0  0  0  0
   -3.7320   -2.9748    0.2059 H   0  0  0  0  0  0  0  0  0  0  0  0
   -5.0272   -1.9514    0.7787 H   0  0  0  0  0  0  0  0  0  0  0  0
   -3.6437   -2.2633    1.7994 H   0  0  0  0  0  0  0  0  0  0  0  0
  1 15  2  0  0  0  0
  2  7  1  0  0  0  0
  2  9  1  0  0  0  0
  2 16  1  0  0  0  0
  3  8  1  0  0  0  0
  3 14  1  0  0  0  0
  3 17  1  0  0  0  0
  4  9  2  0  0  0  0
  4 14  1  0  0  0  0
  5  9  1  0  0  0  0
  5 15  1  0  0  0  0
  5 18  1  0  0  0  0
  6 14  2  0  0  0  0
  6 15  1  0  0  0  0
  7 10  1  0  0  0  0
  7 11  1  0  0  0  0
  7 19  1  0  0  0  0
  8 12  1  0  0  0  0
  8 13  1  0  0  0  0
  8 20  1  0  0  0  0
 10 21  1  0  0  0  0
 10 22  1  0  0  0  0
 10 23  1  0  0  0  0
 11 24  1  0  0  0  0
 11 25  1  0  0  0  0
 11 26  1  0  0  0  0
 12 27  1  0  0  0  0
 12 28  1  0  0  0  0
 12 29  1  0  0  0  0
 13 30  1  0  0  0  0
 13 31  1  0  0  0  0
 13 32  1  0  0  0  0
M  END
>  <PUBCHEM_COMPOUND_CID>
135461611

>  <PUBCHEM_CONFORMER_RMSD>
0.6

>  <PUBCHEM_CONFORMER_DIVERSEORDER>
1
13
30
26
29
19
6
35
41
39
3
32
8
5
21
14
33
9
40
23
38
25
16
34
20
18
7
15
24
28
10
37
36
22
12
11
17
27
4
31
2

>  <PUBCHEM_MMFF94_PARTIAL_CHARGES>
14
1 -0.57
14 0.71
15 0.84
18 0.4
19 0.4
2 -0.82
3 -0.82
32 0.37
4 -0.66
5 -0.49
6 -0.66
7 0.37
8 0.37
9 0.56

>  <PUBCHEM_EFFECTIVE_ROTOR_COUNT>
4

>  <PUBCHEM_PHARMACOPHORE_FEATURES>
8
1 1 acceptor
1 2 donor
1 3 donor
1 5 donor
1 6 donor
3 7 10 11 hydrophobe
3 8 12 13 hydrophobe
6 4 5 6 9 14 15 rings

>  <PUBCHEM_HEAVY_ATOM_COUNT>
15

>  <PUBCHEM_ATOM_DEF_STEREO_COUNT>
0

>  <PUBCHEM_ATOM_UDEF_STEREO_COUNT>
0

>  <PUBCHEM_BOND_DEF_STEREO_COUNT>
0

>  <PUBCHEM_BOND_UDEF_STEREO_COUNT>
0

>  <PUBCHEM_ISOTOPIC_ATOM_COUNT>
0

>  <PUBCHEM_COMPONENT_COUNT>
1

>  <PUBCHEM_CACTVS_TAUTO_COUNT>
-1

>  <PUBCHEM_CONFORMER_ID>
0812FAEB00000001

>  <PUBCHEM_MMFF94_ENERGY>
26.481

>  <PUBCHEM_FEATURE_SELFOVERLAP>
40.728

>  <PUBCHEM_SHAPE_FINGERPRINT>
10618630 7 18409450284468499582
11543360 7 15719682051193725771
116883 192 18341052912973321077
12032990 46 18408887368927668171
12363563 72 18409455799016895906
12553582 1 18342183305511076310
13296908 3 18262234529621604075
13583140 156 14548727366348857315
14123255 52 9511463307679921594
14252887 29 18273220806946651538
15848700 24 18341885311989606479
15885798 251 18409738360941761259
17834072 14 18411410709331835076
18186145 218 17531237396596175071
20339313 130 18339648952736285619
20645477 70 18193549202460958863
20671657 53 18336267933058681465
20871998 184 18129940074996626340
20871998 22 18340775913310081202
21296965 67 18410856576861895865
21501925 9 18412538817268677178
221490 88 17973448998819167251
23402539 116 18341038649371139158
23526113 38 17823702064829932785
23557571 272 18199751341357402516
23559900 14 18267858381774911354
2748010 2 18338784693610588661
3071541 250 18336839696116507437
3091708 16 8921037688188593969
314173 85 18343306954696559626
54173680 148 18337675209200613697
58779409 54 18264756680362443925
633830 44 11386907962279153459
7364860 26 18051697942632381697
81228 2 18337677390764418848
9709674 26 18055350237203410462

>  <PUBCHEM_SHAPE_MULTIPOLES>
277.92
7.6
2.65
0.89
1.69
2.23
-0.21
-6.52
0.22
-0.89
0.04
-0.11
-0.4
0.61

>  <PUBCHEM_SHAPE_SELFOVERLAP>
554.943

>  <PUBCHEM_SHAPE_VOLUME>
164

>  <PUBCHEM_COORDINATE_TYPE>
2
5
10

>  <Energy>
-263.612

$$$$
