5964
 OpenBabel07292612043D

 27 27  0  0  0  0  0  0  0  0999 V2000
   -2.0715    0.0004    0.1214 N   0  3  0  0  0  0  0  0  0  0  0  0
   -1.0205   -0.0002   -1.0110 C   0  0  0  0  0  0  0  0  0  0  0  0
   -1.9326    1.2409    0.9927 C   0  0  0  0  0  0  0  0  0  0  0  0
   -3.4571    0.0003   -0.5137 C   0  0  0  0  0  0  0  0  0  0  0  0
   -1.9320   -1.2396    0.9938 C   0  0  0  0  0  0  0  0  0  0  0  0
    0.4227   -0.0002   -0.5728 C   0  0  0  0  0  0  0  0  0  0  0  0
    1.1028    1.2083   -0.3523 C   0  0  0  0  0  0  0  0  0  0  0  0
    1.1033   -1.2083   -0.3527 C   0  0  0  0  0  0  0  0  0  0  0  0
    2.4170    1.2063    0.1163 C   0  0  0  0  0  0  0  0  0  0  0  0
    2.4180   -1.2059    0.1167 C   0  0  0  0  0  0  0  0  0  0  0  0
    3.0699    0.0007    0.3587 C   0  0  0  0  0  0  0  0  0  0  0  0
   -1.1816    0.8731   -1.6077 H   0  0  0  0  0  0  0  0  0  0  0  0
   -1.1627   -0.9215   -1.5363 H   0  0  0  0  0  0  0  0  0  0  0  0
   -2.0298    2.1162    0.3850 H   0  0  0  0  0  0  0  0  0  0  0  0
   -0.9725    1.2394    1.4650 H   0  0  0  0  0  0  0  0  0  0  0  0
   -2.6980    1.2390    1.7405 H   0  0  0  0  0  0  0  0  0  0  0  0
   -3.5670    0.8681   -1.1299 H   0  0  0  0  0  0  0  0  0  0  0  0
   -4.2016    0.0118    0.2546 H   0  0  0  0  0  0  0  0  0  0  0  0
   -3.5752   -0.8791   -1.1117 H   0  0  0  0  0  0  0  0  0  0  0  0
   -0.9621   -1.2505    1.4456 H   0  0  0  0  0  0  0  0  0  0  0  0
   -2.0547   -2.1153    0.3913 H   0  0  0  0  0  0  0  0  0  0  0  0
   -2.6811   -1.2244    1.7577 H   0  0  0  0  0  0  0  0  0  0  0  0
    0.6270    2.1049   -0.5383 H   0  0  0  0  0  0  0  0  0  0  0  0
    0.6280   -2.1051   -0.5393 H   0  0  0  0  0  0  0  0  0  0  0  0
    2.9058    2.0997    0.2834 H   0  0  0  0  0  0  0  0  0  0  0  0
    2.9072   -2.0989    0.2844 H   0  0  0  0  0  0  0  0  0  0  0  0
    4.0373    0.0012    0.7179 H   0  0  0  0  0  0  0  0  0  0  0  0
  1  2  1  0  0  0  0
  1  3  1  0  0  0  0
  1  4  1  0  0  0  0
  1  5  1  0  0  0  0
  2  6  1  0  0  0  0
  2 12  1  0  0  0  0
  2 13  1  0  0  0  0
  3 14  1  0  0  0  0
  3 15  1  0  0  0  0
  3 16  1  0  0  0  0
  4 17  1  0  0  0  0
  4 18  1  0  0  0  0
  4 19  1  0  0  0  0
  5 20  1  0  0  0  0
  5 21  1  0  0  0  0
  5 22  1  0  0  0  0
  6  7  2  0  0  0  0
  6  8  1  0  0  0  0
  7  9  1  0  0  0  0
  7 23  1  0  0  0  0
  8 10  2  0  0  0  0
  8 24  1  0  0  0  0
  9 11  2  0  0  0  0
  9 25  1  0  0  0  0
 10 11  1  0  0  0  0
 10 26  1  0  0  0  0
 11 27  1  0  0  0  0
M  CHG  1   1   1
M  END
>  <PUBCHEM_COMPOUND_CID>
5964

>  <PUBCHEM_CONFORMER_RMSD>
0.4

>  <PUBCHEM_CONFORMER_DIVERSEORDER>
1

>  <PUBCHEM_MMFF94_PARTIAL_CHARGES>
16
1 -1.01
10 -0.15
11 -0.15
2 0.65
23 0.15
24 0.15
25 0.15
26 0.15
27 0.15
3 0.5
4 0.5
5 0.5
6 -0.14
7 -0.15
8 -0.15
9 -0.15

>  <PUBCHEM_EFFECTIVE_ROTOR_COUNT>
2

>  <PUBCHEM_PHARMACOPHORE_FEATURES>
2
1 1 cation
6 6 7 8 9 10 11 rings

>  <PUBCHEM_HEAVY_ATOM_COUNT>
11

>  <PUBCHEM_ATOM_DEF_STEREO_COUNT>
0

>  <PUBCHEM_ATOM_UDEF_STEREO_COUNT>
0

>  <PUBCHEM_BOND_DEF_STEREO_COUNT>
0

>  <PUBCHEM_BOND_UDEF_STEREO_COUNT>
0

>  <PUBCHEM_ISOTOPIC_ATOM_COUNT>
0

>  <PUBCHEM_COMPONENT_COUNT>
1

>  <PUBCHEM_CACTVS_TAUTO_COUNT>
1

>  <PUBCHEM_CONFORMER_ID>
0000174C00000001

>  <PUBCHEM_MMFF94_ENERGY>
37.7917

>  <PUBCHEM_FEATURE_SELFOVERLAP>
10.148

>  <PUBCHEM_SHAPE_FINGERPRINT>
10219947 1 18409727365809542180
10857977 72 17967529116397800006
12932764 1 16950279607095737102
14325111 11 18410571824793528829
15775835 57 17418373618546853960
16945 1 18410583880814123414
19973954 147 18412554201303526249
20201158 50 18333447629645932931
20279233 1 17748541545772572234
20281407 28 17313387794651528138
20871998 22 18055353527243609998
21028194 46 16559030476042007734
22802520 49 11671243885097915898
23402539 116 18114727301298424709
29004967 10 18260828181234987580
3248919 1 18408889541948744908
369184 2 18410292514833678689
5084963 1 18408037420437354988
57812782 119 18261104184386420399
8030462 33 18342748415679832628

>  <PUBCHEM_SHAPE_MULTIPOLES>
221.39
4.85
1.44
0.96
1.01
0
-0.04
0
-0.41
-0.37
-0.23
0.42
0
0

>  <PUBCHEM_SHAPE_SELFOVERLAP>
442.402

>  <PUBCHEM_SHAPE_VOLUME>
132.9

>  <PUBCHEM_COORDINATE_TYPE>
2
5
10

>  <Energy>
27.5858

$$$$
