3026
 OpenBabel06182610193D

 42 42  0  0  0  0  0  0  0  0999 V2000
    0.2285   -1.3200    0.9115 O   0  0  0  0  0  0  0  0  0  0  0  0
    0.2262    1.3261   -0.9055 O   0  0  0  0  0  0  0  0  0  0  0  0
   -0.1990    0.3701    2.4190 O   0  0  0  0  0  0  0  0  0  0  0  0
   -0.2095   -0.3574   -2.4181 O   0  0  0  0  0  0  0  0  0  0  0  0
    2.1813   -2.7362    0.8532 C   0  0  0  0  0  0  0  0  0  0  0  0
    2.1801    2.7379   -0.8567 C   0  0  0  0  0  0  0  0  0  0  0  0
    2.4665   -2.4232   -0.6170 C   0  0  0  0  0  0  0  0  0  0  0  0
    2.4663    2.4259    0.6133 C   0  0  0  0  0  0  0  0  0  0  0  0
    1.4847   -1.5750    1.5591 C   0  0  0  0  0  0  0  0  0  0  0  0
    1.4784    1.5764   -1.5575 C   0  0  0  0  0  0  0  0  0  0  0  0
   -1.7400   -0.1466    0.6862 C   0  0  0  0  0  0  0  0  0  0  0  0
   -1.7409    0.1506   -0.6792 C   0  0  0  0  0  0  0  0  0  0  0  0
    3.1913   -3.5682   -1.3044 C   0  0  0  0  0  0  0  0  0  0  0  0
    3.1912    3.5715    1.2992 C   0  0  0  0  0  0  0  0  0  0  0  0
   -0.4846   -0.2988    1.4423 C   0  0  0  0  0  0  0  0  0  0  0  0
   -0.4904    0.3082   -1.4345 C   0  0  0  0  0  0  0  0  0  0  0  0
   -2.9552   -0.2865    1.3718 C   0  0  0  0  0  0  0  0  0  0  0  0
   -2.9571    0.2864   -1.3678 C   0  0  0  0  0  0  0  0  0  0  0  0
   -4.1654   -0.1441    0.6849 C   0  0  0  0  0  0  0  0  0  0  0  0
   -4.1667    0.1421   -0.6805 C   0  0  0  0  0  0  0  0  0  0  0  0
    3.1075   -2.9372    1.3498 H   0  0  0  0  0  0  0  0  0  0  0  0
    1.5306   -3.5848    0.8908 H   0  0  0  0  0  0  0  0  0  0  0  0
    3.1061    2.9346   -1.3555 H   0  0  0  0  0  0  0  0  0  0  0  0
    1.5333    3.5893   -0.8959 H   0  0  0  0  0  0  0  0  0  0  0  0
    3.0744   -1.5445   -0.6729 H   0  0  0  0  0  0  0  0  0  0  0  0
    1.5308   -2.2741   -1.1141 H   0  0  0  0  0  0  0  0  0  0  0  0
    3.0745    1.5474    0.6695 H   0  0  0  0  0  0  0  0  0  0  0  0
    1.5310    2.2768    1.1112 H   0  0  0  0  0  0  0  0  0  0  0  0
    1.3148   -1.8287    2.5846 H   0  0  0  0  0  0  0  0  0  0  0  0
    2.1003   -0.7011    1.5109 H   0  0  0  0  0  0  0  0  0  0  0  0
    1.3049    1.8281   -2.5829 H   0  0  0  0  0  0  0  0  0  0  0  0
    2.0922    0.7013   -1.5099 H   0  0  0  0  0  0  0  0  0  0  0  0
    4.1319   -3.7353   -0.8225 H   0  0  0  0  0  0  0  0  0  0  0  0
    3.3561   -3.3202   -2.3321 H   0  0  0  0  0  0  0  0  0  0  0  0
    2.5963   -4.4553   -1.2425 H   0  0  0  0  0  0  0  0  0  0  0  0
    4.1314    3.7386    0.8165 H   0  0  0  0  0  0  0  0  0  0  0  0
    3.3569    3.3243    2.3270 H   0  0  0  0  0  0  0  0  0  0  0  0
    2.5958    4.4584    1.2371 H   0  0  0  0  0  0  0  0  0  0  0  0
   -2.9566   -0.4943    2.3827 H   0  0  0  0  0  0  0  0  0  0  0  0
   -2.9584    0.4922   -2.3791 H   0  0  0  0  0  0  0  0  0  0  0  0
   -5.0594   -0.2510    1.1894 H   0  0  0  0  0  0  0  0  0  0  0  0
   -5.0613    0.2476   -1.1841 H   0  0  0  0  0  0  0  0  0  0  0  0
  1  9  1  0  0  0  0
  1 15  1  0  0  0  0
  2 10  1  0  0  0  0
  2 16  1  0  0  0  0
  3 15  2  0  0  0  0
  4 16  2  0  0  0  0
  5  7  1  0  0  0  0
  5  9  1  0  0  0  0
  5 21  1  0  0  0  0
  5 22  1  0  0  0  0
  6  8  1  0  0  0  0
  6 10  1  0  0  0  0
  6 23  1  0  0  0  0
  6 24  1  0  0  0  0
  7 13  1  0  0  0  0
  7 25  1  0  0  0  0
  7 26  1  0  0  0  0
  8 14  1  0  0  0  0
  8 27  1  0  0  0  0
  8 28  1  0  0  0  0
  9 29  1  0  0  0  0
  9 30  1  0  0  0  0
 10 31  1  0  0  0  0
 10 32  1  0  0  0  0
 11 12  1  0  0  0  0
 11 15  1  0  0  0  0
 11 17  2  0  0  0  0
 12 16  1  0  0  0  0
 12 18  2  0  0  0  0
 13 33  1  0  0  0  0
 13 34  1  0  0  0  0
 13 35  1  0  0  0  0
 14 36  1  0  0  0  0
 14 37  1  0  0  0  0
 14 38  1  0  0  0  0
 17 19  1  0  0  0  0
 17 39  1  0  0  0  0
 18 20  1  0  0  0  0
 18 40  1  0  0  0  0
 19 20  2  0  0  0  0
 19 41  1  0  0  0  0
 20 42  1  0  0  0  0
M  END
>  <PUBCHEM_COMPOUND_CID>
3026

>  <PUBCHEM_CONFORMER_RMSD>
1

>  <PUBCHEM_CONFORMER_DIVERSEORDER>
1
4
15
49
36
27
43
14
16
39
59
57
26
11
60
58
25
32
50
23
3
51
13
2
30
9
66
54
19
70
42
38
63
22
24
45
29
41
64
6
61
67
44
68
31
53
46
48
10
40
47
17
28
35
69
56
62
20
21
34
52
12
37
33
5
8
55
18
65
7

>  <PUBCHEM_MMFF94_PARTIAL_CHARGES>
18
1 -0.43
10 0.28
11 0.09
12 0.09
15 0.63
16 0.63
17 -0.15
18 -0.15
19 -0.15
2 -0.43
20 -0.15
3 -0.57
39 0.15
4 -0.57
40 0.15
41 0.15
42 0.15
9 0.28

>  <PUBCHEM_EFFECTIVE_ROTOR_COUNT>
10

>  <PUBCHEM_PHARMACOPHORE_FEATURES>
5
1 13 hydrophobe
1 14 hydrophobe
1 3 acceptor
1 4 acceptor
6 11 12 17 18 19 20 rings

>  <PUBCHEM_HEAVY_ATOM_COUNT>
20

>  <PUBCHEM_ATOM_DEF_STEREO_COUNT>
0

>  <PUBCHEM_ATOM_UDEF_STEREO_COUNT>
0

>  <PUBCHEM_BOND_DEF_STEREO_COUNT>
0

>  <PUBCHEM_BOND_UDEF_STEREO_COUNT>
0

>  <PUBCHEM_ISOTOPIC_ATOM_COUNT>
0

>  <PUBCHEM_COMPONENT_COUNT>
1

>  <PUBCHEM_CACTVS_TAUTO_COUNT>
1

>  <PUBCHEM_CONFORMER_ID>
00000BD200000001

>  <PUBCHEM_MMFF94_ENERGY>
39.0205

>  <PUBCHEM_FEATURE_SELFOVERLAP>
25.372

>  <PUBCHEM_SHAPE_FINGERPRINT>
12788726 201 17327174347603291006
1813 80 18057047895572372918
22182313 1 17313101973806230315
23419403 2 17606088772291691054
23526113 38 17678203575220259198
23557571 272 17612293170542497010
23559900 14 17603876623357841117
2748010 2 16950280707166598999
394222 165 17703522089338725244
4663303 62 18187082853943851139
7364860 26 18187082854065176941
81228 2 17398942778725757096
84936 31 18339912792529864562

>  <PUBCHEM_SHAPE_MULTIPOLES>
388.11
6.2
3.8
2.16
4.55
0.01
0
0
0.01
-7.98
0
-0.17
0
1.16

>  <PUBCHEM_SHAPE_SELFOVERLAP>
781.275

>  <PUBCHEM_SHAPE_VOLUME>
227.8

>  <PUBCHEM_COORDINATE_TYPE>
2
5
10

>  <Energy>
16.6357

$$$$
