2554
 OpenBabel07292612043D

 30 32  0  0  0  0  0  0  0  0999 V2000
    1.0156    2.9685   -0.6868 O   0  0  0  0  0  0  0  0  0  0  0  0
   -0.0122    0.8980   -0.2675 N   0  0  0  0  0  0  0  0  0  0  0  0
   -1.1936    2.8527   -0.8316 N   0  0  0  0  0  0  0  0  0  0  0  0
    1.2092    0.2084    0.0590 C   0  0  0  0  0  0  0  0  0  0  0  0
   -1.2085    0.1880    0.0931 C   0  0  0  0  0  0  0  0  0  0  0  0
    1.5048   -1.0829   -0.4196 C   0  0  0  0  0  0  0  0  0  0  0  0
   -1.5086   -1.0940   -0.4065 C   0  0  0  0  0  0  0  0  0  0  0  0
    0.6649   -1.8006   -1.3838 C   0  0  0  0  0  0  0  0  0  0  0  0
   -0.6738   -1.8032   -1.3805 C   0  0  0  0  0  0  0  0  0  0  0  0
    2.1469    0.8387    0.9010 C   0  0  0  0  0  0  0  0  0  0  0  0
   -2.1228    0.7972    0.9785 C   0  0  0  0  0  0  0  0  0  0  0  0
    2.7192   -1.6980   -0.0609 C   0  0  0  0  0  0  0  0  0  0  0  0
   -2.7226   -1.7066   -0.0464 C   0  0  0  0  0  0  0  0  0  0  0  0
    0.0130    2.2647   -0.5706 C   0  0  0  0  0  0  0  0  0  0  0  0
    3.3403    0.2113    1.2667 C   0  0  0  0  0  0  0  0  0  0  0  0
   -3.3197    0.1734    1.3323 C   0  0  0  0  0  0  0  0  0  0  0  0
    3.6293   -1.0599    0.7837 C   0  0  0  0  0  0  0  0  0  0  0  0
   -3.6205   -1.0783    0.8173 C   0  0  0  0  0  0  0  0  0  0  0  0
   -1.2367    3.8116   -1.0508 H   0  0  0  0  0  0  0  0  0  0  0  0
   -2.0192    2.3173   -0.8004 H   0  0  0  0  0  0  0  0  0  0  0  0
    1.1415   -2.3445   -2.1201 H   0  0  0  0  0  0  0  0  0  0  0  0
   -1.1530   -2.3439   -2.1174 H   0  0  0  0  0  0  0  0  0  0  0  0
    1.9472    1.7868    1.2562 H   0  0  0  0  0  0  0  0  0  0  0  0
   -1.9014    1.7247    1.3731 H   0  0  0  0  0  0  0  0  0  0  0  0
    2.9405   -2.6365   -0.4286 H   0  0  0  0  0  0  0  0  0  0  0  0
   -2.9533   -2.6373   -0.4279 H   0  0  0  0  0  0  0  0  0  0  0  0
    4.0056    0.6902    1.8936 H   0  0  0  0  0  0  0  0  0  0  0  0
   -3.9782    0.6416    1.9744 H   0  0  0  0  0  0  0  0  0  0  0  0
    4.5101   -1.5284    1.0477 H   0  0  0  0  0  0  0  0  0  0  0  0
   -4.5056   -1.5437    1.0719 H   0  0  0  0  0  0  0  0  0  0  0  0
  1 14  2  0  0  0  0
  2  4  1  0  0  0  0
  2  5  1  0  0  0  0
  2 14  1  0  0  0  0
  3 14  1  0  0  0  0
  3 19  1  0  0  0  0
  3 20  1  0  0  0  0
  4  6  1  0  0  0  0
  4 10  2  0  0  0  0
  5  7  1  0  0  0  0
  5 11  2  0  0  0  0
  6  8  1  0  0  0  0
  6 12  2  0  0  0  0
  7  9  1  0  0  0  0
  7 13  2  0  0  0  0
  8  9  2  0  0  0  0
  8 21  1  0  0  0  0
  9 22  1  0  0  0  0
 10 15  1  0  0  0  0
 10 23  1  0  0  0  0
 11 16  1  0  0  0  0
 11 24  1  0  0  0  0
 12 17  1  0  0  0  0
 12 25  1  0  0  0  0
 13 18  1  0  0  0  0
 13 26  1  0  0  0  0
 15 17  2  0  0  0  0
 15 27  1  0  0  0  0
 16 18  2  0  0  0  0
 16 28  1  0  0  0  0
 17 29  1  0  0  0  0
 18 30  1  0  0  0  0
M  END
>  <PUBCHEM_COMPOUND_CID>
2554

>  <PUBCHEM_CONFORMER_RMSD>
0.6

>  <PUBCHEM_CONFORMER_DIVERSEORDER>
1
2

>  <PUBCHEM_MMFF94_PARTIAL_CHARGES>
30
1 -0.57
10 -0.15
11 -0.15
12 -0.15
13 -0.15
14 0.69
15 -0.15
16 -0.15
17 -0.15
18 -0.15
19 0.15
2 -0.29
20 0.15
21 0.15
22 0.15
23 0.15
24 0.15
25 0.15
26 0.15
27 0.15
28 0.15
29 0.37
3 -0.8
30 0.37
4 0.12
5 0.12
6 0.03
7 0.03
8 -0.18
9 -0.18

>  <PUBCHEM_EFFECTIVE_ROTOR_COUNT>
1.2

>  <PUBCHEM_PHARMACOPHORE_FEATURES>
5
1 1 acceptor
1 3 donor
6 4 6 10 12 15 17 rings
6 5 7 11 13 16 18 rings
7 2 4 5 6 7 8 9 rings

>  <PUBCHEM_HEAVY_ATOM_COUNT>
18

>  <PUBCHEM_ATOM_DEF_STEREO_COUNT>
0

>  <PUBCHEM_ATOM_UDEF_STEREO_COUNT>
0

>  <PUBCHEM_BOND_DEF_STEREO_COUNT>
0

>  <PUBCHEM_BOND_UDEF_STEREO_COUNT>
0

>  <PUBCHEM_ISOTOPIC_ATOM_COUNT>
0

>  <PUBCHEM_COMPONENT_COUNT>
1

>  <PUBCHEM_CACTVS_TAUTO_COUNT>
2

>  <PUBCHEM_CONFORMER_ID>
000009FA00000001

>  <PUBCHEM_MMFF94_ENERGY>
96.3002

>  <PUBCHEM_FEATURE_SELFOVERLAP>
25.393

>  <PUBCHEM_SHAPE_FINGERPRINT>
11086676 242 18409450288900428674
11132069 177 18201433658071574178
11578080 2 16443334399432483244
12035758 1 18191305979676033833
12251169 10 18201718457352998042
12382932 28 18131071515216335867
12403814 3 18340471327478334930
12553582 1 18334583455264440010
12644460 14 18046375142739282977
12696612 119 18340495555088398415
12716301 132 17976529516835310858
13140716 1 18198623237647293858
13172582 1 18341896298584527703
14178342 30 18271823289165783299
14817 1 12417244829310282045
15852999 172 17543054689599355876
15881359 60 18199447914386091167
16945 1 18337390547136408999
17804303 29 18059588935763723566
19930374 2 18268142063663107743
20361792 2 17968095339058304675
20559304 39 18196384816841091969
20871998 184 18339635629716227820
21421861 104 17687207669615332115
22149856 69 17199990785173847683
22959321 45 18341894125637063530
23184049 59 18272088296741956667
2334 1 18342737437790994294
23388829 49 17984127438341021871
23419403 2 15834168738216889839
23463225 33 18412547651536402555
2748010 2 18126287432691521974
5845 1 8640062714569841637
6786 2 15657726418252651894
6992083 37 18271236235328349871
81228 2 17973740085932445737
90316 7 18262237703248923545

>  <PUBCHEM_SHAPE_MULTIPOLES>
354.6
5.41
2.71
1.3
0.13
1.58
0.01
-1.83
3.06
-0.03
-1.33
-0.05
0.03
0.06

>  <PUBCHEM_SHAPE_SELFOVERLAP>
786.5

>  <PUBCHEM_SHAPE_VOLUME>
186.8

>  <PUBCHEM_COORDINATE_TYPE>
2
5
10

>  <Energy>
38.3751

$$$$
