1615
 OpenBabel07292612043D

 30 31  0  0  1  0  0  0  0  0999 V2000
    2.6942   -1.5953    0.2961 O   0  0  0  0  0  0  0  0  0  0  0  0
    3.6205    0.4450   -0.6002 O   0  0  0  0  0  0  0  0  0  0  0  0
   -4.1300    0.0854    0.3136 N   0  3  0  0  0  0  0  0  0  0  0  0
   -2.7394    0.0124   -0.1817 C   0  0  1  0  0  0  0  0  0  0  0  0
   -1.7834    0.4193    0.9688 C   0  0  0  0  0  0  0  0  0  0  0  0
   -0.3287    0.4808    0.5638 C   0  0  0  0  0  0  0  0  0  0  0  0
   -2.4260   -1.3904   -0.7206 C   0  0  0  0  0  0  0  0  0  0  0  0
    0.4830   -0.6602    0.6855 C   0  0  0  0  0  0  0  0  0  0  0  0
    1.7903   -0.5823    0.2679 C   0  0  0  0  0  0  0  0  0  0  0  0
    0.2190    1.6700    0.0284 C   0  0  0  0  0  0  0  0  0  0  0  0
    2.3132    0.5793   -0.2482 C   0  0  0  0  0  0  0  0  0  0  0  0
    1.5578    1.7239   -0.3773 C   0  0  0  0  0  0  0  0  0  0  0  0
   -5.1095   -0.2193   -0.7225 C   0  0  0  0  0  0  0  0  0  0  0  0
    3.8565   -0.9340   -0.2449 C   0  0  0  0  0  0  0  0  0  0  0  0
   -4.3042    1.0284    0.6610 H   0  0  0  0  0  0  0  0  0  0  0  0
   -4.2328   -0.6116    1.0512 H   0  0  0  0  0  0  0  0  0  0  0  0
   -2.6043    0.6898   -0.9989 H   0  0  0  0  0  0  0  0  0  0  0  0
   -1.8833   -0.2958    1.7584 H   0  0  0  0  0  0  0  0  0  0  0  0
   -2.0637    1.4068    1.2706 H   0  0  0  0  0  0  0  0  0  0  0  0
   -2.5472   -2.1088    0.0631 H   0  0  0  0  0  0  0  0  0  0  0  0
   -1.4176   -1.4184   -1.0773 H   0  0  0  0  0  0  0  0  0  0  0  0
   -3.0948   -1.6218   -1.5231 H   0  0  0  0  0  0  0  0  0  0  0  0
    0.1061   -1.5364    1.0793 H   0  0  0  0  0  0  0  0  0  0  0  0
   -0.3757    2.5083   -0.0644 H   0  0  0  0  0  0  0  0  0  0  0  0
    1.9649    2.5915   -0.7600 H   0  0  0  0  0  0  0  0  0  0  0  0
   -5.0266    0.4967   -1.5133 H   0  0  0  0  0  0  0  0  0  0  0  0
   -6.0941   -0.1780   -0.3058 H   0  0  0  0  0  0  0  0  0  0  0  0
   -4.9266   -1.2002   -1.1089 H   0  0  0  0  0  0  0  0  0  0  0  0
    4.1685   -1.4612   -1.1222 H   0  0  0  0  0  0  0  0  0  0  0  0
    4.6056   -0.9387    0.5190 H   0  0  0  0  0  0  0  0  0  0  0  0
  1  9  1  0  0  0  0
  1 14  1  0  0  0  0
  2 11  1  0  0  0  0
  2 14  1  0  0  0  0
  3  4  1  0  0  0  0
  3 13  1  0  0  0  0
  3 15  1  0  0  0  0
  3 16  1  0  0  0  0
  4  5  1  0  0  0  0
  4  7  1  0  0  0  0
  4 17  1  6  0  0  0
  5  6  1  0  0  0  0
  5 18  1  0  0  0  0
  5 19  1  0  0  0  0
  6  8  2  0  0  0  0
  6 10  1  0  0  0  0
  7 20  1  0  0  0  0
  7 21  1  0  0  0  0
  7 22  1  0  0  0  0
  8  9  1  0  0  0  0
  8 23  1  0  0  0  0
  9 11  2  0  0  0  0
 10 12  2  0  0  0  0
 10 24  1  0  0  0  0
 11 12  1  0  0  0  0
 12 25  1  0  0  0  0
 13 26  1  0  0  0  0
 13 27  1  0  0  0  0
 13 28  1  0  0  0  0
 14 29  1  0  0  0  0
 14 30  1  0  0  0  0
M  CHG  1   3   1
M  END
>  <PUBCHEM_COMPOUND_CID>
1615

>  <PUBCHEM_CONFORMER_RMSD>
0.6

>  <PUBCHEM_CONFORMER_DIVERSEORDER>
1
19
24
6
17
9
20
10
21
25
16
23
13
8
11
7
12
15
18
22
2
5
3
14
4

>  <PUBCHEM_MMFF94_PARTIAL_CHARGES>
17
1 -0.36
10 -0.15
11 0.08
12 -0.15
13 0.27
14 0.56
2 -0.36
21 0.15
22 0.36
23 0.15
24 0.15
3 -0.9
4 0.27
5 0.14
6 -0.14
8 -0.15
9 0.08

>  <PUBCHEM_EFFECTIVE_ROTOR_COUNT>
3.6

>  <PUBCHEM_PHARMACOPHORE_FEATURES>
6
1 1 acceptor
1 2 acceptor
1 3 cation
1 3 donor
5 1 2 9 11 14 rings
6 6 8 9 10 11 12 rings

>  <PUBCHEM_HEAVY_ATOM_COUNT>
14

>  <PUBCHEM_ATOM_DEF_STEREO_COUNT>
0

>  <PUBCHEM_ATOM_UDEF_STEREO_COUNT>
1

>  <PUBCHEM_BOND_DEF_STEREO_COUNT>
0

>  <PUBCHEM_BOND_UDEF_STEREO_COUNT>
0

>  <PUBCHEM_ISOTOPIC_ATOM_COUNT>
0

>  <PUBCHEM_COMPONENT_COUNT>
1

>  <PUBCHEM_CACTVS_TAUTO_COUNT>
1

>  <PUBCHEM_CONFORMER_ID>
0000064F00000001

>  <PUBCHEM_MMFF94_ENERGY>
29.0659

>  <PUBCHEM_FEATURE_SELFOVERLAP>
30.601

>  <PUBCHEM_SHAPE_FINGERPRINT>
10498660 4 15647595771670095943
11401426 45 18335699464225415016
11471102 20 18333449854449392268
13571099 22 18408888442421338393
13690532 89 18343301453275944063
14115302 16 17988643038513043247
14251717 144 18408323289334388474
14350558 41 17703796902847643854
14576447 43 18341327881079904903
14911166 2 18187372029876116278
14943859 89 13984666953338233721
14993402 34 18341618117758010446
15477762 27 18410013238674534238
15757776 16 18408039593980950618
16945 1 18188505643729027392
18186145 218 17676200291062581241
19422 9 18342178903617613643
200 152 18341612598709191312
20201158 50 18186526496665100114
20645477 70 18411139142839674447
21119208 17 18411136944085177783
21256008 61 18412544323005397864
21267235 1 18340216214684183478
21524375 3 8142082061335522024
21637258 2 16773238379949265526
221490 88 18118974821568855859
22485316 2 18201715176087290647
23402539 116 18272084946551265284
23402655 69 18334011688017362869
23559900 14 17775000224159744240
25 1 17822006493530486067
2748010 2 17757575292753101712
3060560 45 18259980483181469814
4047638 21 14345797149513754212
4072396 5 18041546015003955840
4990 188 17603302661524769659
522135 26 18335136497123610527
7364860 26 18130220587769307104
93112 12 18336826489450475983

>  <PUBCHEM_SHAPE_MULTIPOLES>
271.39
7.85
1.51
0.86
6.17
0.18
-0.04
-2.02
1.87
-0.83
0.12
0.26
-0.01
-0.5

>  <PUBCHEM_SHAPE_SELFOVERLAP>
570.924

>  <PUBCHEM_SHAPE_VOLUME>
154.5

>  <PUBCHEM_COORDINATE_TYPE>
2
5
10

>  <Energy>
34.8178

$$$$
