11954177
 OpenBabel06182610193D

 44 46  0  0  1  0  0  0  0  0999 V2000
   -5.0300   -0.1400    0.9018 O   0  0  0  0  0  0  0  0  0  0  0  0
   -4.9495    1.3785   -0.7191 O   0  0  0  0  0  0  0  0  0  0  0  0
    5.6411   -0.1103    0.0884 O   0  0  0  0  0  0  0  0  0  0  0  0
   -2.8446    0.6919    0.3573 C   0  0  2  0  0  0  0  0  0  0  0  0
   -2.2634   -0.7465    0.1744 C   0  0  2  0  0  0  0  0  0  0  0  0
   -2.1597    1.6418   -0.6413 C   0  0  0  0  0  0  0  0  0  0  0  0
   -0.7376   -0.7399    0.2481 C   0  0  0  0  0  0  0  0  0  0  0  0
   -0.6454    1.6985   -0.4677 C   0  0  0  0  0  0  0  0  0  0  0  0
    0.0296    0.3877   -0.1135 C   0  0  0  0  0  0  0  0  0  0  0  0
   -2.7285   -1.4230   -1.1523 C   0  0  0  0  0  0  0  0  0  0  0  0
   -2.6532    1.2064    1.8026 C   0  0  0  0  0  0  0  0  0  0  0  0
   -4.3479    0.7031    0.1016 C   0  0  0  0  0  0  0  0  0  0  0  0
    1.4565    0.3198   -0.0695 C   0  0  0  0  0  0  0  0  0  0  0  0
   -0.0806   -1.9080    0.6624 C   0  0  0  0  0  0  0  0  0  0  0  0
   -2.3584   -2.8988   -1.2790 C   0  0  0  0  0  0  0  0  0  0  0  0
    2.0866   -0.8925    0.3027 C   0  0  0  0  0  0  0  0  0  0  0  0
    1.3078   -1.9933    0.6624 C   0  0  0  0  0  0  0  0  0  0  0  0
    2.2955    1.4117   -0.3753 C   0  0  0  0  0  0  0  0  0  0  0  0
    3.4895   -0.9840    0.3262 C   0  0  0  0  0  0  0  0  0  0  0  0
    3.6889    1.3128   -0.3331 C   0  0  0  0  0  0  0  0  0  0  0  0
    4.2933    0.1120    0.0135 C   0  0  0  0  0  0  0  0  0  0  0  0
    6.4789    1.0028   -0.2008 C   0  0  0  0  0  0  0  0  0  0  0  0
   -4.5726   -0.6601    1.5329 H   0  0  0  0  0  0  0  0  0  0  0  0
   -2.6520   -1.3276    0.9845 H   0  0  0  0  0  0  0  0  0  0  0  0
   -2.5558    2.6260   -0.5022 H   0  0  0  0  0  0  0  0  0  0  0  0
   -2.3551    1.2675   -1.6244 H   0  0  0  0  0  0  0  0  0  0  0  0
   -0.4307    2.3991    0.3120 H   0  0  0  0  0  0  0  0  0  0  0  0
   -0.2542    1.9768   -1.4240 H   0  0  0  0  0  0  0  0  0  0  0  0
   -2.2822   -0.8960   -1.9695 H   0  0  0  0  0  0  0  0  0  0  0  0
   -3.7976   -1.3779   -1.1562 H   0  0  0  0  0  0  0  0  0  0  0  0
   -1.6102    1.2209    2.0408 H   0  0  0  0  0  0  0  0  0  0  0  0
   -3.1654    0.5583    2.4826 H   0  0  0  0  0  0  0  0  0  0  0  0
   -3.0516    2.1961    1.8845 H   0  0  0  0  0  0  0  0  0  0  0  0
   -0.6378   -2.7193    0.9730 H   0  0  0  0  0  0  0  0  0  0  0  0
   -1.2932   -3.0006   -1.2801 H   0  0  0  0  0  0  0  0  0  0  0  0
   -2.7548   -3.2887   -2.1932 H   0  0  0  0  0  0  0  0  0  0  0  0
   -2.7677   -3.4415   -0.4526 H   0  0  0  0  0  0  0  0  0  0  0  0
    1.7659   -2.8783    0.9308 H   0  0  0  0  0  0  0  0  0  0  0  0
    1.8666    2.3127   -0.6387 H   0  0  0  0  0  0  0  0  0  0  0  0
    3.9335   -1.8805    0.5800 H   0  0  0  0  0  0  0  0  0  0  0  0
    4.2701    2.1347   -0.5603 H   0  0  0  0  0  0  0  0  0  0  0  0
    7.5042    0.7104   -0.1108 H   0  0  0  0  0  0  0  0  0  0  0  0
    6.2717    1.7939    0.4892 H   0  0  0  0  0  0  0  0  0  0  0  0
    6.2907    1.3411   -1.1983 H   0  0  0  0  0  0  0  0  0  0  0  0
  1 12  1  0  0  0  0
  1 23  1  0  0  0  0
  2 12  2  0  0  0  0
  3 21  1  0  0  0  0
  3 22  1  0  0  0  0
  4  5  1  0  0  0  0
  4  6  1  0  0  0  0
  4 11  1  0  0  0  0
  4 12  1  6  0  0  0
  5  7  1  0  0  0  0
  5 10  1  0  0  0  0
  5 24  1  1  0  0  0
  6  8  1  0  0  0  0
  6 25  1  0  0  0  0
  6 26  1  0  0  0  0
  7  9  2  0  0  0  0
  7 14  1  0  0  0  0
  8  9  1  0  0  0  0
  8 27  1  0  0  0  0
  8 28  1  0  0  0  0
  9 13  1  0  0  0  0
 10 15  1  0  0  0  0
 10 29  1  0  0  0  0
 10 30  1  0  0  0  0
 11 31  1  0  0  0  0
 11 32  1  0  0  0  0
 11 33  1  0  0  0  0
 13 16  2  0  0  0  0
 13 18  1  0  0  0  0
 14 17  2  0  0  0  0
 14 34  1  0  0  0  0
 15 35  1  0  0  0  0
 15 36  1  0  0  0  0
 15 37  1  0  0  0  0
 16 17  1  0  0  0  0
 16 19  1  0  0  0  0
 17 38  1  0  0  0  0
 18 20  2  0  0  0  0
 18 39  1  0  0  0  0
 19 21  2  0  0  0  0
 19 40  1  0  0  0  0
 20 21  1  0  0  0  0
 20 41  1  0  0  0  0
 22 42  1  0  0  0  0
 22 43  1  0  0  0  0
 22 44  1  0  0  0  0
M  END
>  <PUBCHEM_COMPOUND_CID>
11954177

>  <PUBCHEM_CONFORMER_RMSD>
0.6

>  <PUBCHEM_CONFORMER_DIVERSEORDER>
1
4
2
3

>  <PUBCHEM_MMFF94_PARTIAL_CHARGES>
22
1 -0.65
12 0.66
14 -0.15
17 -0.15
18 -0.15
19 -0.15
2 -0.57
20 -0.15
21 0.08
22 0.28
3 -0.36
33 0.15
37 0.15
38 0.15
39 0.15
4 0.06
40 0.5
41 0.15
5 0.14
7 -0.14
8 0.14
9 -0.14

>  <PUBCHEM_EFFECTIVE_ROTOR_COUNT>
3.8

>  <PUBCHEM_PHARMACOPHORE_FEATURES>
8
1 1 acceptor
1 15 hydrophobe
1 2 acceptor
1 3 acceptor
3 1 2 12 anion
6 13 16 18 19 20 21 rings
6 4 5 6 7 8 9 rings
6 7 9 13 14 16 17 rings

>  <PUBCHEM_HEAVY_ATOM_COUNT>
22

>  <PUBCHEM_ATOM_DEF_STEREO_COUNT>
2

>  <PUBCHEM_ATOM_UDEF_STEREO_COUNT>
0

>  <PUBCHEM_BOND_DEF_STEREO_COUNT>
0

>  <PUBCHEM_BOND_UDEF_STEREO_COUNT>
0

>  <PUBCHEM_ISOTOPIC_ATOM_COUNT>
0

>  <PUBCHEM_COMPONENT_COUNT>
1

>  <PUBCHEM_CACTVS_TAUTO_COUNT>
1

>  <PUBCHEM_CONFORMER_ID>
00B6680100000001

>  <PUBCHEM_MMFF94_ENERGY>
81.4793

>  <PUBCHEM_FEATURE_SELFOVERLAP>
40.696

>  <PUBCHEM_SHAPE_FINGERPRINT>
10 15 18040433339586760792
10062212 137 18410003373150908346
10366900 7 16774071860706699227
10411042 1 17687187903537785506
10616163 171 18342737463645597070
10967382 1 18335700503190632704
1100329 8 18340490083490259857
11132069 177 18411976962173187696
11315181 36 18059861697042964624
12236239 1 18343021073109582170
12293681 4 17131844169671885480
12390115 104 18269569238473106800
12403814 3 18187362108644256333
12788726 201 17274263829387509441
12838862 33 18263906826314302149
13140716 1 18263088884268185192
13214271 11 18040720268638544059
13583140 156 17967541172429094201
14790565 3 18334020492827400956
15196674 1 18261955145966639584
16945 1 18191868929149004091
200 152 18341608196700282065
20261772 1 18410295817484324291
20775438 99 15753407641899530166
21033650 10 16127559006647918968
21236236 1 18340486780797351222
21267235 1 18335711537046148642
23198884 109 17275391988663238520
23227448 37 18409729577659924399
23402539 116 18410569622018527676
23402655 69 18411416202869280766
23557571 272 17988363783691916686
23558518 356 17754742950594001594
23559900 14 17988074604002819640
25147074 1 18336248099069208802
335352 9 18335420162734109110
34934 24 18261669286123796739
350125 39 18337957899346776304
3545911 37 18342460343759812842
474 4 18260832604940513306
474229 33 18334014982246534416
5104073 3 18336824299233472672
59755656 215 18339928121811560758
633830 44 17530684333752362700
69090 78 18411979139795485743

>  <PUBCHEM_SHAPE_MULTIPOLES>
435.14
10.7
2.28
1.03
9.83
1.06
-0.13
-3.66
0.24
-1.12
0.41
-0.94
0.04
-0.88

>  <PUBCHEM_SHAPE_SELFOVERLAP>
947.255

>  <PUBCHEM_SHAPE_VOLUME>
237

>  <PUBCHEM_COORDINATE_TYPE>
2
5
10

>  <Energy>
31.7845

$$$$
