
     RDKit          3D

 15 15  0  0  0  0  0  0  0  0999 V2000
   -6.4980   -6.4340   20.8830 C   0  0  0  0  0  0  0  0  0  0  0  0
   -5.5440   -5.5920   21.7280 C   0  0  2  0  0  0  0  0  0  0  0  0
   -4.1030   -6.0140   21.4820 C   0  0  0  0  0  0  0  0  0  0  0  0
   -5.9320   -5.8920   23.1810 C   0  0  0  0  0  0  0  0  0  0  0  0
   -5.8500   -4.1050   21.4280 C   0  0  0  0  0  0  0  0  0  0  0  0
   -4.9650   -2.9950   22.0480 C   0  0  2  0  0  0  0  0  0  0  0  0
   -4.9280   -3.0710   23.5760 C   0  0  0  0  0  0  0  0  0  0  0  0
   -5.5920   -1.6590   21.6620 C   0  0  0  0  0  0  0  0  0  0  0  0
   -3.6350   -3.0020   21.5690 C   0  0  2  0  0  0  0  0  0  0  0  0
   -2.5850   -2.6180   22.4010 C   0  0  0  0  0  0  0  0  0  0  0  0
   -1.2770   -2.5880   21.9260 C   0  0  0  0  0  0  0  0  0  0  0  0
   -1.0170   -2.9290   20.6030 C   0  0  0  0  0  0  0  0  0  0  0  0
    0.2600   -2.8960   20.1370 O   0  0  0  0  0  0  0  0  0  0  0  0
   -2.0560   -3.2950   19.7560 C   0  0  0  0  0  0  0  0  0  0  0  0
   -3.3660   -3.3210   20.2340 C   0  0  0  0  0  0  0  0  0  0  0  0
  2  1  1  6
  3  2  1  0
  4  2  1  0
  5  2  1  0
  6  5  1  0
  6  7  1  1
  8  6  1  0
  9  6  1  0
  9 10  1  6
 11 10  1  0
 12 11  1  0
 13 12  1  0
 14 12  1  0
 15 14  1  0
 15  9  1  0
M  END
$$$$
