
     RDKit          3D

 20 23  0  0  0  0  0  0  0  0999 V2000
   24.0200   -2.4610    4.3300 C   0  0  0  0  0  0  0  0  0  0  0  0
   23.2330   -2.1680    3.2420 C   0  0  0  0  0  0  0  0  0  0  0  0
   21.8400   -2.2570    3.2900 C   0  0  0  0  0  0  0  0  0  0  0  0
   21.0670   -1.9940    2.1930 O   0  0  0  0  0  0  0  0  0  0  0  0
   21.3090   -2.6450    4.5080 C   0  0  0  0  0  0  0  0  0  0  0  0
   22.0530   -2.9190    5.6200 C   0  0  0  0  0  0  0  0  0  0  0  0
   21.4210   -3.3170    6.9240 C   0  0  0  0  0  0  0  0  0  0  0  0
   22.3640   -4.0200    7.8420 C   0  0  0  0  0  0  0  0  0  0  0  0
   23.5980   -3.1470    8.0560 C   0  0  2  0  0  0  0  0  0  0  0  0
   24.3420   -3.1370    6.7180 C   0  0  1  0  0  0  0  0  0  0  0  0
   23.4990   -2.8130    5.5290 C   0  0  0  0  0  0  0  0  0  0  0  0
   25.5570   -2.2170    6.8160 C   0  0  0  0  0  0  0  0  0  0  0  0
   26.5010   -2.6570    7.9230 C   0  0  0  0  0  0  0  0  0  0  0  0
   25.7790   -2.7710    9.2420 C   0  0  1  0  0  0  0  0  0  0  0  0
   24.5580   -3.6640    9.1140 C   0  0  1  0  0  0  0  0  0  0  0  0
   24.0590   -3.8870   10.5190 C   0  0  0  0  0  0  0  0  0  0  0  0
   25.3640   -3.8430   11.3120 C   0  0  0  0  0  0  0  0  0  0  0  0
   26.5130   -3.4710   10.3690 C   0  0  2  0  0  0  0  0  0  0  0  0
   27.4690   -2.7110   11.0940 O   0  0  0  0  0  0  0  0  0  0  0  0
   25.3610   -1.4240    9.7710 C   0  0  0  0  0  0  0  0  0  0  0  0
  2  1  1  0
  3  2  1  0
  4  3  1  0
  5  3  1  0
  6  5  1  0
  7  6  1  0
  8  7  1  0
  9  8  1  6
 10  9  1  0
 11  1  1  0
 11 10  1  0
 11  6  1  0
 10 12  1  1
 13 12  1  0
 14 13  1  0
 15 14  1  0
 15  9  1  0
 15 16  1  1
 17 16  1  0
 18 14  1  0
 18 17  1  0
 18 19  1  1
 14 20  1  1
M  END
$$$$
