7184


 15 15  0  0  0  0  0  0  0  0999 V2000
   -4.2745   -4.3098   17.4050 O   0  0  0  0  0  0  0  0  0  0  0  0
   -6.0927   -4.2458   13.7079 C   0  0  0  0  0  0  0  0  0  0  0  0
   -4.8484   -4.8299   13.8292 C   0  0  0  0  0  0  0  0  0  0  0  0
   -6.7484   -3.6829   14.7838 C   0  0  0  0  0  0  0  0  0  0  0  0
   -4.2332   -4.8522   15.0809 C   0  0  0  0  0  0  0  0  0  0  0  0
   -6.1331   -3.7051   16.0354 C   0  0  0  0  0  0  0  0  0  0  0  0
   -4.8755   -4.2898   16.1841 C   0  0  0  0  0  0  0  0  0  0  0  0
   -4.8592   -3.8779   18.0512 H   0  0  0  0  0  0  0  0  0  0  0  0
   -6.3620   -4.8902   11.4282 O   0  0  0  0  0  0  0  0  0  0  0  0
   -6.7466   -4.2219   12.3752 C   0  0  0  0  0  0  0  0  0  0  0  0
   -7.8078   -3.3680   12.3726 O   0  0  0  0  0  0  0  0  0  0  0  0
   -8.4816   -3.2126   11.1313 C   0  0  0  0  0  0  0  0  0  0  0  0
   -8.7678   -1.7343   10.9087 C   0  0  0  0  0  0  0  0  0  0  0  0
   -9.2113   -1.0459   12.1963 C   0  0  0  0  0  0  0  0  0  0  0  0
  -10.6397   -1.4158   12.5625 C   0  0  0  0  0  0  0  0  0  0  0  0
 11 12  1  0
 11 10  1  0
  9 10  2  0
  1  7  1  0
  1  8  1  0
 13 14  1  0
 13 12  1  0
 14 15  1  0
  2 10  1  0
  2  3  2  0
  2  4  1  0
  3  5  1  0
  4  6  2  0
  5  7  2  0
  6  7  1  0
M  END
> <PUBCHEM_COMPOUND_CID>
7184

> <PUBCHEM_CONFORMER_RMSD>
0.6

> <PUBCHEM_CONFORMER_DIVERSEORDER>
1
44
15
20
41
3
43
64
40
47
74
50
4
6
22
69
55
77
16
75
28
26
73
53
11
32
49
58
67
63
62
24
65
27
19
38
12
48
76
25
57
10
31
17
42
34
68
51
9
23
8
14
21
33
18
30
5
66
70
2
56
45
39
37
46
35
60
36
52
59
54
29
71
72
61
13
7

> <PUBCHEM_MMFF94_PARTIAL_CHARGES>
16
1 -0.43
10 -0.15
11 -0.15
12 -0.15
13 -0.15
14 0.08
2 -0.57
24 0.15
25 0.15
26 0.15
27 0.15
28 0.45
3 -0.53
6 0.28
8 0.09
9 0.63

> <PUBCHEM_EFFECTIVE_ROTOR_COUNT>
5

> <PUBCHEM_PHARMACOPHORE_FEATURES>
4
1 2 acceptor
1 3 donor
1 7 hydrophobe
6 8 10 11 12 13 14 rings

> <PUBCHEM_HEAVY_ATOM_COUNT>
14

> <PUBCHEM_ATOM_DEF_STEREO_COUNT>
0

> <PUBCHEM_ATOM_UDEF_STEREO_COUNT>
0

> <PUBCHEM_BOND_DEF_STEREO_COUNT>
0

> <PUBCHEM_BOND_UDEF_STEREO_COUNT>
0

> <PUBCHEM_ISOTOPIC_ATOM_COUNT>
0

> <PUBCHEM_COMPONENT_COUNT>
1

> <PUBCHEM_CACTVS_TAUTO_COUNT>
3

> <PUBCHEM_CONFORMER_ID>
00001C1000000001

> <PUBCHEM_MMFF94_ENERGY>
26.8162

> <PUBCHEM_FEATURE_SELFOVERLAP>
20.297

> <PUBCHEM_SHAPE_FINGERPRINT>
100836 57 10159698014692119138
10465860 250 17561082501386551480
10968037 39 18334860532716625766
11046707 91 18409446968869733128
12032990 46 18409167722807014732
12251169 10 18060418027818494140
13167823 11 18408602527187214402
13288520 33 18409730651148371639
13551218 46 18270963440792261598
13690532 89 18409730694483049495
13862211 1 18342737464162399199
14252887 29 17989215824084205230
17804303 29 18273497883401759577
17834072 33 18410577323021717172
1813 80 17968106291699631366
18186145 218 14923950067535008876
200 152 17530965761531918920
20281475 54 18337672035103360796
20767249 213 10735876175026745610
20828058 44 18273214175553485034
21267235 1 18410019844213228018
22485316 2 18408601440280660184
2297311 6 18130235869953600908
23402539 116 17846774109970031213
23463225 33 18411140233692529510
23559900 14 18270389602695558633
351380 180 10665231458300457486
351380 3 18259982652836299658
42 15 18342740719346176002
4214541 1 18340769252190604880
5104073 3 18271533095046590721
559249 180 18335415712557464698
7364860 26 18126566957732624024
83771 10 18407476665592062532

> <PUBCHEM_SHAPE_MULTIPOLES>
270.51
10.85
1.64
0.68
12.98
0.32
0
-5.61
1.62
-0.51
-0.11
-0.08
0
-0.42

> <PUBCHEM_SHAPE_SELFOVERLAP>
550.017

> <PUBCHEM_SHAPE_VOLUME>
158.1

> <PUBCHEM_COORDINATE_TYPE>
2
5
10

> <minimizedAffinity>
-6.59042

> <CNNscore>
0.9231377244

> <CNNaffinity>
5.5309524536

> <CNN_VS>
5.1058306694

> <CNNaffinity_variance>
0.1338400692

$$$$
7184


 15 15  0  0  0  0  0  0  0  0999 V2000
   -3.5823   -4.4414   16.9184 O   0  0  0  0  0  0  0  0  0  0  0  0
   -6.5628   -4.4304   14.0733 C   0  0  0  0  0  0  0  0  0  0  0  0
   -6.8685   -4.0396   15.3609 C   0  0  0  0  0  0  0  0  0  0  0  0
   -5.2920   -4.8242   13.7068 C   0  0  0  0  0  0  0  0  0  0  0  0
   -5.8593   -4.0427   16.3239 C   0  0  0  0  0  0  0  0  0  0  0  0
   -4.2829   -4.8273   14.6699 C   0  0  0  0  0  0  0  0  0  0  0  0
   -4.5665   -4.4365   15.9784 C   0  0  0  0  0  0  0  0  0  0  0  0
   -2.7540   -4.7410   16.5058 H   0  0  0  0  0  0  0  0  0  0  0  0
   -8.4256   -5.3488   12.9022 O   0  0  0  0  0  0  0  0  0  0  0  0
   -7.6376   -4.4274   13.0490 C   0  0  0  0  0  0  0  0  0  0  0  0
   -7.6102   -3.2754   12.3228 O   0  0  0  0  0  0  0  0  0  0  0  0
   -8.4032   -3.2611   11.1439 C   0  0  0  0  0  0  0  0  0  0  0  0
   -8.8216   -1.8275   10.8500 C   0  0  0  0  0  0  0  0  0  0  0  0
   -9.1967   -1.0771   12.1247 C   0  0  0  0  0  0  0  0  0  0  0  0
  -10.6059   -1.4210   12.5796 C   0  0  0  0  0  0  0  0  0  0  0  0
 11 12  1  0
 11 10  1  0
  9 10  2  0
  1  7  1  0
  1  8  1  0
 13 14  1  0
 13 12  1  0
 14 15  1  0
  2 10  1  0
  2  3  2  0
  2  4  1  0
  3  5  1  0
  4  6  2  0
  5  7  2  0
  6  7  1  0
M  END
> <PUBCHEM_COMPOUND_CID>
7184

> <PUBCHEM_CONFORMER_RMSD>
0.6

> <PUBCHEM_CONFORMER_DIVERSEORDER>
1
44
15
20
41
3
43
64
40
47
74
50
4
6
22
69
55
77
16
75
28
26
73
53
11
32
49
58
67
63
62
24
65
27
19
38
12
48
76
25
57
10
31
17
42
34
68
51
9
23
8
14
21
33
18
30
5
66
70
2
56
45
39
37
46
35
60
36
52
59
54
29
71
72
61
13
7

> <PUBCHEM_MMFF94_PARTIAL_CHARGES>
16
1 -0.43
10 -0.15
11 -0.15
12 -0.15
13 -0.15
14 0.08
2 -0.57
24 0.15
25 0.15
26 0.15
27 0.15
28 0.45
3 -0.53
6 0.28
8 0.09
9 0.63

> <PUBCHEM_EFFECTIVE_ROTOR_COUNT>
5

> <PUBCHEM_PHARMACOPHORE_FEATURES>
4
1 2 acceptor
1 3 donor
1 7 hydrophobe
6 8 10 11 12 13 14 rings

> <PUBCHEM_HEAVY_ATOM_COUNT>
14

> <PUBCHEM_ATOM_DEF_STEREO_COUNT>
0

> <PUBCHEM_ATOM_UDEF_STEREO_COUNT>
0

> <PUBCHEM_BOND_DEF_STEREO_COUNT>
0

> <PUBCHEM_BOND_UDEF_STEREO_COUNT>
0

> <PUBCHEM_ISOTOPIC_ATOM_COUNT>
0

> <PUBCHEM_COMPONENT_COUNT>
1

> <PUBCHEM_CACTVS_TAUTO_COUNT>
3

> <PUBCHEM_CONFORMER_ID>
00001C1000000001

> <PUBCHEM_MMFF94_ENERGY>
26.8162

> <PUBCHEM_FEATURE_SELFOVERLAP>
20.297

> <PUBCHEM_SHAPE_FINGERPRINT>
100836 57 10159698014692119138
10465860 250 17561082501386551480
10968037 39 18334860532716625766
11046707 91 18409446968869733128
12032990 46 18409167722807014732
12251169 10 18060418027818494140
13167823 11 18408602527187214402
13288520 33 18409730651148371639
13551218 46 18270963440792261598
13690532 89 18409730694483049495
13862211 1 18342737464162399199
14252887 29 17989215824084205230
17804303 29 18273497883401759577
17834072 33 18410577323021717172
1813 80 17968106291699631366
18186145 218 14923950067535008876
200 152 17530965761531918920
20281475 54 18337672035103360796
20767249 213 10735876175026745610
20828058 44 18273214175553485034
21267235 1 18410019844213228018
22485316 2 18408601440280660184
2297311 6 18130235869953600908
23402539 116 17846774109970031213
23463225 33 18411140233692529510
23559900 14 18270389602695558633
351380 180 10665231458300457486
351380 3 18259982652836299658
42 15 18342740719346176002
4214541 1 18340769252190604880
5104073 3 18271533095046590721
559249 180 18335415712557464698
7364860 26 18126566957732624024
83771 10 18407476665592062532

> <PUBCHEM_SHAPE_MULTIPOLES>
270.51
10.85
1.64
0.68
12.98
0.32
0
-5.61
1.62
-0.51
-0.11
-0.08
0
-0.42

> <PUBCHEM_SHAPE_SELFOVERLAP>
550.017

> <PUBCHEM_SHAPE_VOLUME>
158.1

> <PUBCHEM_COORDINATE_TYPE>
2
5
10

> <minimizedAffinity>
-6.52065

> <CNNscore>
0.8861925006

> <CNNaffinity>
5.2745871544

> <CNN_VS>
4.6742997169

> <CNNaffinity_variance>
0.1143800840

$$$$
7184


 15 15  0  0  0  0  0  0  0  0999 V2000
   -4.3786   -4.6396   17.2508 O   0  0  0  0  0  0  0  0  0  0  0  0
   -7.3789   -4.4883   14.4305 C   0  0  0  0  0  0  0  0  0  0  0  0
   -6.0675   -4.3772   14.0158 C   0  0  0  0  0  0  0  0  0  0  0  0
   -7.7187   -4.6490   15.7584 C   0  0  0  0  0  0  0  0  0  0  0  0
   -5.0517   -4.4291   14.9704 C   0  0  0  0  0  0  0  0  0  0  0  0
   -6.7030   -4.7007   16.7130 C   0  0  0  0  0  0  0  0  0  0  0  0
   -5.3695   -4.5909   16.3191 C   0  0  0  0  0  0  0  0  0  0  0  0
   -4.7782   -4.7548   18.1300 H   0  0  0  0  0  0  0  0  0  0  0  0
   -8.4894   -5.1520   12.4278 O   0  0  0  0  0  0  0  0  0  0  0  0
   -8.4595   -4.4323   13.4140 C   0  0  0  0  0  0  0  0  0  0  0  0
   -9.3826   -3.4857   13.7412 O   0  0  0  0  0  0  0  0  0  0  0  0
  -10.4145   -3.2642   12.7899 C   0  0  0  0  0  0  0  0  0  0  0  0
  -10.5898   -1.7650   12.5944 C   0  0  0  0  0  0  0  0  0  0  0  0
   -9.2695   -1.0838   12.2459 C   0  0  0  0  0  0  0  0  0  0  0  0
   -8.7463   -1.5414   10.8939 C   0  0  0  0  0  0  0  0  0  0  0  0
 11 12  1  0
 11 10  1  0
  9 10  2  0
  1  7  1  0
  1  8  1  0
 13 14  1  0
 13 12  1  0
 14 15  1  0
  2 10  1  0
  2  3  2  0
  2  4  1  0
  3  5  1  0
  4  6  2  0
  5  7  2  0
  6  7  1  0
M  END
> <PUBCHEM_COMPOUND_CID>
7184

> <PUBCHEM_CONFORMER_RMSD>
0.6

> <PUBCHEM_CONFORMER_DIVERSEORDER>
1
44
15
20
41
3
43
64
40
47
74
50
4
6
22
69
55
77
16
75
28
26
73
53
11
32
49
58
67
63
62
24
65
27
19
38
12
48
76
25
57
10
31
17
42
34
68
51
9
23
8
14
21
33
18
30
5
66
70
2
56
45
39
37
46
35
60
36
52
59
54
29
71
72
61
13
7

> <PUBCHEM_MMFF94_PARTIAL_CHARGES>
16
1 -0.43
10 -0.15
11 -0.15
12 -0.15
13 -0.15
14 0.08
2 -0.57
24 0.15
25 0.15
26 0.15
27 0.15
28 0.45
3 -0.53
6 0.28
8 0.09
9 0.63

> <PUBCHEM_EFFECTIVE_ROTOR_COUNT>
5

> <PUBCHEM_PHARMACOPHORE_FEATURES>
4
1 2 acceptor
1 3 donor
1 7 hydrophobe
6 8 10 11 12 13 14 rings

> <PUBCHEM_HEAVY_ATOM_COUNT>
14

> <PUBCHEM_ATOM_DEF_STEREO_COUNT>
0

> <PUBCHEM_ATOM_UDEF_STEREO_COUNT>
0

> <PUBCHEM_BOND_DEF_STEREO_COUNT>
0

> <PUBCHEM_BOND_UDEF_STEREO_COUNT>
0

> <PUBCHEM_ISOTOPIC_ATOM_COUNT>
0

> <PUBCHEM_COMPONENT_COUNT>
1

> <PUBCHEM_CACTVS_TAUTO_COUNT>
3

> <PUBCHEM_CONFORMER_ID>
00001C1000000001

> <PUBCHEM_MMFF94_ENERGY>
26.8162

> <PUBCHEM_FEATURE_SELFOVERLAP>
20.297

> <PUBCHEM_SHAPE_FINGERPRINT>
100836 57 10159698014692119138
10465860 250 17561082501386551480
10968037 39 18334860532716625766
11046707 91 18409446968869733128
12032990 46 18409167722807014732
12251169 10 18060418027818494140
13167823 11 18408602527187214402
13288520 33 18409730651148371639
13551218 46 18270963440792261598
13690532 89 18409730694483049495
13862211 1 18342737464162399199
14252887 29 17989215824084205230
17804303 29 18273497883401759577
17834072 33 18410577323021717172
1813 80 17968106291699631366
18186145 218 14923950067535008876
200 152 17530965761531918920
20281475 54 18337672035103360796
20767249 213 10735876175026745610
20828058 44 18273214175553485034
21267235 1 18410019844213228018
22485316 2 18408601440280660184
2297311 6 18130235869953600908
23402539 116 17846774109970031213
23463225 33 18411140233692529510
23559900 14 18270389602695558633
351380 180 10665231458300457486
351380 3 18259982652836299658
42 15 18342740719346176002
4214541 1 18340769252190604880
5104073 3 18271533095046590721
559249 180 18335415712557464698
7364860 26 18126566957732624024
83771 10 18407476665592062532

> <PUBCHEM_SHAPE_MULTIPOLES>
270.51
10.85
1.64
0.68
12.98
0.32
0
-5.61
1.62
-0.51
-0.11
-0.08
0
-0.42

> <PUBCHEM_SHAPE_SELFOVERLAP>
550.017

> <PUBCHEM_SHAPE_VOLUME>
158.1

> <PUBCHEM_COORDINATE_TYPE>
2
5
10

> <minimizedAffinity>
-6.58308

> <CNNscore>
0.8787863255

> <CNNaffinity>
5.3695492744

> <CNN_VS>
4.7186865807

> <CNNaffinity_variance>
0.1493653804

$$$$
7184


 15 15  0  0  0  0  0  0  0  0999 V2000
   -3.5329   -4.1257   17.0228 O   0  0  0  0  0  0  0  0  0  0  0  0
   -6.6540   -4.5647   14.3687 C   0  0  0  0  0  0  0  0  0  0  0  0
   -6.9134   -4.0564   15.6251 C   0  0  0  0  0  0  0  0  0  0  0  0
   -5.3839   -4.9302   13.9716 C   0  0  0  0  0  0  0  0  0  0  0  0
   -5.8567   -3.9071   16.5234 C   0  0  0  0  0  0  0  0  0  0  0  0
   -4.3273   -4.7811   14.8699 C   0  0  0  0  0  0  0  0  0  0  0  0
   -4.5636   -4.2695   16.1458 C   0  0  0  0  0  0  0  0  0  0  0  0
   -2.7118   -4.4249   16.5958 H   0  0  0  0  0  0  0  0  0  0  0  0
   -7.9953   -5.7567   12.7987 O   0  0  0  0  0  0  0  0  0  0  0  0
   -7.7793   -4.7238   13.4134 C   0  0  0  0  0  0  0  0  0  0  0  0
   -8.5103   -3.5773   13.3321 O   0  0  0  0  0  0  0  0  0  0  0  0
   -8.9497   -3.2075   12.0324 C   0  0  0  0  0  0  0  0  0  0  0  0
   -8.6755   -1.7249   11.8239 C   0  0  0  0  0  0  0  0  0  0  0  0
   -8.6253   -1.3639   10.3422 C   0  0  0  0  0  0  0  0  0  0  0  0
   -8.6259   -2.6060    9.4656 C   0  0  0  0  0  0  0  0  0  0  0  0
 11 12  1  0
 11 10  1  0
  9 10  2  0
  1  7  1  0
  1  8  1  0
 13 14  1  0
 13 12  1  0
 14 15  1  0
  2 10  1  0
  2  3  2  0
  2  4  1  0
  3  5  1  0
  4  6  2  0
  5  7  2  0
  6  7  1  0
M  END
> <PUBCHEM_COMPOUND_CID>
7184

> <PUBCHEM_CONFORMER_RMSD>
0.6

> <PUBCHEM_CONFORMER_DIVERSEORDER>
1
44
15
20
41
3
43
64
40
47
74
50
4
6
22
69
55
77
16
75
28
26
73
53
11
32
49
58
67
63
62
24
65
27
19
38
12
48
76
25
57
10
31
17
42
34
68
51
9
23
8
14
21
33
18
30
5
66
70
2
56
45
39
37
46
35
60
36
52
59
54
29
71
72
61
13
7

> <PUBCHEM_MMFF94_PARTIAL_CHARGES>
16
1 -0.43
10 -0.15
11 -0.15
12 -0.15
13 -0.15
14 0.08
2 -0.57
24 0.15
25 0.15
26 0.15
27 0.15
28 0.45
3 -0.53
6 0.28
8 0.09
9 0.63

> <PUBCHEM_EFFECTIVE_ROTOR_COUNT>
5

> <PUBCHEM_PHARMACOPHORE_FEATURES>
4
1 2 acceptor
1 3 donor
1 7 hydrophobe
6 8 10 11 12 13 14 rings

> <PUBCHEM_HEAVY_ATOM_COUNT>
14

> <PUBCHEM_ATOM_DEF_STEREO_COUNT>
0

> <PUBCHEM_ATOM_UDEF_STEREO_COUNT>
0

> <PUBCHEM_BOND_DEF_STEREO_COUNT>
0

> <PUBCHEM_BOND_UDEF_STEREO_COUNT>
0

> <PUBCHEM_ISOTOPIC_ATOM_COUNT>
0

> <PUBCHEM_COMPONENT_COUNT>
1

> <PUBCHEM_CACTVS_TAUTO_COUNT>
3

> <PUBCHEM_CONFORMER_ID>
00001C1000000001

> <PUBCHEM_MMFF94_ENERGY>
26.8162

> <PUBCHEM_FEATURE_SELFOVERLAP>
20.297

> <PUBCHEM_SHAPE_FINGERPRINT>
100836 57 10159698014692119138
10465860 250 17561082501386551480
10968037 39 18334860532716625766
11046707 91 18409446968869733128
12032990 46 18409167722807014732
12251169 10 18060418027818494140
13167823 11 18408602527187214402
13288520 33 18409730651148371639
13551218 46 18270963440792261598
13690532 89 18409730694483049495
13862211 1 18342737464162399199
14252887 29 17989215824084205230
17804303 29 18273497883401759577
17834072 33 18410577323021717172
1813 80 17968106291699631366
18186145 218 14923950067535008876
200 152 17530965761531918920
20281475 54 18337672035103360796
20767249 213 10735876175026745610
20828058 44 18273214175553485034
21267235 1 18410019844213228018
22485316 2 18408601440280660184
2297311 6 18130235869953600908
23402539 116 17846774109970031213
23463225 33 18411140233692529510
23559900 14 18270389602695558633
351380 180 10665231458300457486
351380 3 18259982652836299658
42 15 18342740719346176002
4214541 1 18340769252190604880
5104073 3 18271533095046590721
559249 180 18335415712557464698
7364860 26 18126566957732624024
83771 10 18407476665592062532

> <PUBCHEM_SHAPE_MULTIPOLES>
270.51
10.85
1.64
0.68
12.98
0.32
0
-5.61
1.62
-0.51
-0.11
-0.08
0
-0.42

> <PUBCHEM_SHAPE_SELFOVERLAP>
550.017

> <PUBCHEM_SHAPE_VOLUME>
158.1

> <PUBCHEM_COORDINATE_TYPE>
2
5
10

> <minimizedAffinity>
-6.34294

> <CNNscore>
0.8745635152

> <CNNaffinity>
5.4426536560

> <CNN_VS>
4.7599463463

> <CNNaffinity_variance>
0.2326269150

$$$$
7184


 15 15  0  0  0  0  0  0  0  0999 V2000
   -3.5653   -4.4883   16.8854 O   0  0  0  0  0  0  0  0  0  0  0  0
   -6.6200   -4.2536   14.1300 C   0  0  0  0  0  0  0  0  0  0  0  0
   -6.8860   -3.9456   15.4485 C   0  0  0  0  0  0  0  0  0  0  0  0
   -5.3647   -4.6371   13.7036 C   0  0  0  0  0  0  0  0  0  0  0  0
   -5.8517   -4.0244   16.3812 C   0  0  0  0  0  0  0  0  0  0  0  0
   -4.3306   -4.7159   14.6363 C   0  0  0  0  0  0  0  0  0  0  0  0
   -4.5740   -4.4095   15.9751 C   0  0  0  0  0  0  0  0  0  0  0  0
   -2.7524   -4.7696   16.4313 H   0  0  0  0  0  0  0  0  0  0  0  0
   -8.8724   -3.8918   13.4367 O   0  0  0  0  0  0  0  0  0  0  0  0
   -7.7214   -4.1701   13.1380 C   0  0  0  0  0  0  0  0  0  0  0  0
   -7.2643   -4.4420   11.8840 O   0  0  0  0  0  0  0  0  0  0  0  0
   -7.8361   -3.6778   10.8314 C   0  0  0  0  0  0  0  0  0  0  0  0
   -7.1289   -4.0272    9.5297 C   0  0  0  0  0  0  0  0  0  0  0  0
   -8.0869   -4.6471    8.5165 C   0  0  0  0  0  0  0  0  0  0  0  0
   -9.4634   -4.0056    8.5862 C   0  0  0  0  0  0  0  0  0  0  0  0
 11 12  1  0
 11 10  1  0
  9 10  2  0
  1  7  1  0
  1  8  1  0
 13 14  1  0
 13 12  1  0
 14 15  1  0
  2 10  1  0
  2  3  2  0
  2  4  1  0
  3  5  1  0
  4  6  2  0
  5  7  2  0
  6  7  1  0
M  END
> <PUBCHEM_COMPOUND_CID>
7184

> <PUBCHEM_CONFORMER_RMSD>
0.6

> <PUBCHEM_CONFORMER_DIVERSEORDER>
1
44
15
20
41
3
43
64
40
47
74
50
4
6
22
69
55
77
16
75
28
26
73
53
11
32
49
58
67
63
62
24
65
27
19
38
12
48
76
25
57
10
31
17
42
34
68
51
9
23
8
14
21
33
18
30
5
66
70
2
56
45
39
37
46
35
60
36
52
59
54
29
71
72
61
13
7

> <PUBCHEM_MMFF94_PARTIAL_CHARGES>
16
1 -0.43
10 -0.15
11 -0.15
12 -0.15
13 -0.15
14 0.08
2 -0.57
24 0.15
25 0.15
26 0.15
27 0.15
28 0.45
3 -0.53
6 0.28
8 0.09
9 0.63

> <PUBCHEM_EFFECTIVE_ROTOR_COUNT>
5

> <PUBCHEM_PHARMACOPHORE_FEATURES>
4
1 2 acceptor
1 3 donor
1 7 hydrophobe
6 8 10 11 12 13 14 rings

> <PUBCHEM_HEAVY_ATOM_COUNT>
14

> <PUBCHEM_ATOM_DEF_STEREO_COUNT>
0

> <PUBCHEM_ATOM_UDEF_STEREO_COUNT>
0

> <PUBCHEM_BOND_DEF_STEREO_COUNT>
0

> <PUBCHEM_BOND_UDEF_STEREO_COUNT>
0

> <PUBCHEM_ISOTOPIC_ATOM_COUNT>
0

> <PUBCHEM_COMPONENT_COUNT>
1

> <PUBCHEM_CACTVS_TAUTO_COUNT>
3

> <PUBCHEM_CONFORMER_ID>
00001C1000000001

> <PUBCHEM_MMFF94_ENERGY>
26.8162

> <PUBCHEM_FEATURE_SELFOVERLAP>
20.297

> <PUBCHEM_SHAPE_FINGERPRINT>
100836 57 10159698014692119138
10465860 250 17561082501386551480
10968037 39 18334860532716625766
11046707 91 18409446968869733128
12032990 46 18409167722807014732
12251169 10 18060418027818494140
13167823 11 18408602527187214402
13288520 33 18409730651148371639
13551218 46 18270963440792261598
13690532 89 18409730694483049495
13862211 1 18342737464162399199
14252887 29 17989215824084205230
17804303 29 18273497883401759577
17834072 33 18410577323021717172
1813 80 17968106291699631366
18186145 218 14923950067535008876
200 152 17530965761531918920
20281475 54 18337672035103360796
20767249 213 10735876175026745610
20828058 44 18273214175553485034
21267235 1 18410019844213228018
22485316 2 18408601440280660184
2297311 6 18130235869953600908
23402539 116 17846774109970031213
23463225 33 18411140233692529510
23559900 14 18270389602695558633
351380 180 10665231458300457486
351380 3 18259982652836299658
42 15 18342740719346176002
4214541 1 18340769252190604880
5104073 3 18271533095046590721
559249 180 18335415712557464698
7364860 26 18126566957732624024
83771 10 18407476665592062532

> <PUBCHEM_SHAPE_MULTIPOLES>
270.51
10.85
1.64
0.68
12.98
0.32
0
-5.61
1.62
-0.51
-0.11
-0.08
0
-0.42

> <PUBCHEM_SHAPE_SELFOVERLAP>
550.017

> <PUBCHEM_SHAPE_VOLUME>
158.1

> <PUBCHEM_COORDINATE_TYPE>
2
5
10

> <minimizedAffinity>
-6.02085

> <CNNscore>
0.8736320138

> <CNNaffinity>
5.6285500526

> <CNN_VS>
4.9172816277

> <CNNaffinity_variance>
0.3071005344

$$$$
7184


 15 15  0  0  0  0  0  0  0  0999 V2000
   -4.5358   -4.5215   17.3817 O   0  0  0  0  0  0  0  0  0  0  0  0
   -6.8617   -4.7004   13.9852 C   0  0  0  0  0  0  0  0  0  0  0  0
   -5.4914   -4.8055   13.8614 C   0  0  0  0  0  0  0  0  0  0  0  0
   -7.4789   -4.5380   15.2088 C   0  0  0  0  0  0  0  0  0  0  0  0
   -4.7040   -4.7456   15.0113 C   0  0  0  0  0  0  0  0  0  0  0  0
   -6.6915   -4.4780   16.3586 C   0  0  0  0  0  0  0  0  0  0  0  0
   -5.3041   -4.5819   16.2600 C   0  0  0  0  0  0  0  0  0  0  0  0
   -5.1151   -4.4060   18.1545 H   0  0  0  0  0  0  0  0  0  0  0  0
   -8.4616   -5.6860   12.5176 O   0  0  0  0  0  0  0  0  0  0  0  0
   -7.6991   -4.7636   12.7608 C   0  0  0  0  0  0  0  0  0  0  0  0
   -7.4927   -3.6690   11.9769 O   0  0  0  0  0  0  0  0  0  0  0  0
   -8.0341   -3.7294   10.6646 C   0  0  0  0  0  0  0  0  0  0  0  0
   -6.9200   -4.0802    9.6886 C   0  0  0  0  0  0  0  0  0  0  0  0
   -7.1968   -5.3956    8.9664 C   0  0  0  0  0  0  0  0  0  0  0  0
   -8.3489   -5.2603    7.9838 C   0  0  0  0  0  0  0  0  0  0  0  0
 11 12  1  0
 11 10  1  0
  9 10  2  0
  1  7  1  0
  1  8  1  0
 13 14  1  0
 13 12  1  0
 14 15  1  0
  2 10  1  0
  2  3  2  0
  2  4  1  0
  3  5  1  0
  4  6  2  0
  5  7  2  0
  6  7  1  0
M  END
> <PUBCHEM_COMPOUND_CID>
7184

> <PUBCHEM_CONFORMER_RMSD>
0.6

> <PUBCHEM_CONFORMER_DIVERSEORDER>
1
44
15
20
41
3
43
64
40
47
74
50
4
6
22
69
55
77
16
75
28
26
73
53
11
32
49
58
67
63
62
24
65
27
19
38
12
48
76
25
57
10
31
17
42
34
68
51
9
23
8
14
21
33
18
30
5
66
70
2
56
45
39
37
46
35
60
36
52
59
54
29
71
72
61
13
7

> <PUBCHEM_MMFF94_PARTIAL_CHARGES>
16
1 -0.43
10 -0.15
11 -0.15
12 -0.15
13 -0.15
14 0.08
2 -0.57
24 0.15
25 0.15
26 0.15
27 0.15
28 0.45
3 -0.53
6 0.28
8 0.09
9 0.63

> <PUBCHEM_EFFECTIVE_ROTOR_COUNT>
5

> <PUBCHEM_PHARMACOPHORE_FEATURES>
4
1 2 acceptor
1 3 donor
1 7 hydrophobe
6 8 10 11 12 13 14 rings

> <PUBCHEM_HEAVY_ATOM_COUNT>
14

> <PUBCHEM_ATOM_DEF_STEREO_COUNT>
0

> <PUBCHEM_ATOM_UDEF_STEREO_COUNT>
0

> <PUBCHEM_BOND_DEF_STEREO_COUNT>
0

> <PUBCHEM_BOND_UDEF_STEREO_COUNT>
0

> <PUBCHEM_ISOTOPIC_ATOM_COUNT>
0

> <PUBCHEM_COMPONENT_COUNT>
1

> <PUBCHEM_CACTVS_TAUTO_COUNT>
3

> <PUBCHEM_CONFORMER_ID>
00001C1000000001

> <PUBCHEM_MMFF94_ENERGY>
26.8162

> <PUBCHEM_FEATURE_SELFOVERLAP>
20.297

> <PUBCHEM_SHAPE_FINGERPRINT>
100836 57 10159698014692119138
10465860 250 17561082501386551480
10968037 39 18334860532716625766
11046707 91 18409446968869733128
12032990 46 18409167722807014732
12251169 10 18060418027818494140
13167823 11 18408602527187214402
13288520 33 18409730651148371639
13551218 46 18270963440792261598
13690532 89 18409730694483049495
13862211 1 18342737464162399199
14252887 29 17989215824084205230
17804303 29 18273497883401759577
17834072 33 18410577323021717172
1813 80 17968106291699631366
18186145 218 14923950067535008876
200 152 17530965761531918920
20281475 54 18337672035103360796
20767249 213 10735876175026745610
20828058 44 18273214175553485034
21267235 1 18410019844213228018
22485316 2 18408601440280660184
2297311 6 18130235869953600908
23402539 116 17846774109970031213
23463225 33 18411140233692529510
23559900 14 18270389602695558633
351380 180 10665231458300457486
351380 3 18259982652836299658
42 15 18342740719346176002
4214541 1 18340769252190604880
5104073 3 18271533095046590721
559249 180 18335415712557464698
7364860 26 18126566957732624024
83771 10 18407476665592062532

> <PUBCHEM_SHAPE_MULTIPOLES>
270.51
10.85
1.64
0.68
12.98
0.32
0
-5.61
1.62
-0.51
-0.11
-0.08
0
-0.42

> <PUBCHEM_SHAPE_SELFOVERLAP>
550.017

> <PUBCHEM_SHAPE_VOLUME>
158.1

> <PUBCHEM_COORDINATE_TYPE>
2
5
10

> <minimizedAffinity>
-6.03543

> <CNNscore>
0.8532065749

> <CNNaffinity>
5.4514923096

> <CNN_VS>
4.6512489319

> <CNNaffinity_variance>
0.5153324008

$$$$
7184


 15 15  0  0  0  0  0  0  0  0999 V2000
   -4.3704   -4.5515   17.2762 O   0  0  0  0  0  0  0  0  0  0  0  0
   -7.2314   -4.3278   14.3193 C   0  0  0  0  0  0  0  0  0  0  0  0
   -7.6365   -4.4897   15.6284 C   0  0  0  0  0  0  0  0  0  0  0  0
   -5.9000   -4.2378   13.9677 C   0  0  0  0  0  0  0  0  0  0  0  0
   -6.6680   -4.5648   16.6295 C   0  0  0  0  0  0  0  0  0  0  0  0
   -4.9316   -4.3130   14.9688 C   0  0  0  0  0  0  0  0  0  0  0  0
   -5.3155   -4.4764   16.2997 C   0  0  0  0  0  0  0  0  0  0  0  0
   -3.4903   -4.4726   16.8696 H   0  0  0  0  0  0  0  0  0  0  0  0
   -9.3928   -3.8271   13.4461 O   0  0  0  0  0  0  0  0  0  0  0  0
   -8.2628   -4.2486   13.2543 C   0  0  0  0  0  0  0  0  0  0  0  0
   -7.7695   -4.7030   12.0688 O   0  0  0  0  0  0  0  0  0  0  0  0
   -8.5663   -4.4457   10.9208 C   0  0  0  0  0  0  0  0  0  0  0  0
   -7.8119   -3.4963   10.0010 C   0  0  0  0  0  0  0  0  0  0  0  0
   -8.6158   -2.2314    9.7145 C   0  0  0  0  0  0  0  0  0  0  0  0
   -8.7397   -1.3575   10.9523 C   0  0  0  0  0  0  0  0  0  0  0  0
 11 12  1  0
 11 10  1  0
  9 10  2  0
  1  7  1  0
  1  8  1  0
 13 14  1  0
 13 12  1  0
 14 15  1  0
  2 10  1  0
  2  3  2  0
  2  4  1  0
  3  5  1  0
  4  6  2  0
  5  7  2  0
  6  7  1  0
M  END
> <PUBCHEM_COMPOUND_CID>
7184

> <PUBCHEM_CONFORMER_RMSD>
0.6

> <PUBCHEM_CONFORMER_DIVERSEORDER>
1
44
15
20
41
3
43
64
40
47
74
50
4
6
22
69
55
77
16
75
28
26
73
53
11
32
49
58
67
63
62
24
65
27
19
38
12
48
76
25
57
10
31
17
42
34
68
51
9
23
8
14
21
33
18
30
5
66
70
2
56
45
39
37
46
35
60
36
52
59
54
29
71
72
61
13
7

> <PUBCHEM_MMFF94_PARTIAL_CHARGES>
16
1 -0.43
10 -0.15
11 -0.15
12 -0.15
13 -0.15
14 0.08
2 -0.57
24 0.15
25 0.15
26 0.15
27 0.15
28 0.45
3 -0.53
6 0.28
8 0.09
9 0.63

> <PUBCHEM_EFFECTIVE_ROTOR_COUNT>
5

> <PUBCHEM_PHARMACOPHORE_FEATURES>
4
1 2 acceptor
1 3 donor
1 7 hydrophobe
6 8 10 11 12 13 14 rings

> <PUBCHEM_HEAVY_ATOM_COUNT>
14

> <PUBCHEM_ATOM_DEF_STEREO_COUNT>
0

> <PUBCHEM_ATOM_UDEF_STEREO_COUNT>
0

> <PUBCHEM_BOND_DEF_STEREO_COUNT>
0

> <PUBCHEM_BOND_UDEF_STEREO_COUNT>
0

> <PUBCHEM_ISOTOPIC_ATOM_COUNT>
0

> <PUBCHEM_COMPONENT_COUNT>
1

> <PUBCHEM_CACTVS_TAUTO_COUNT>
3

> <PUBCHEM_CONFORMER_ID>
00001C1000000001

> <PUBCHEM_MMFF94_ENERGY>
26.8162

> <PUBCHEM_FEATURE_SELFOVERLAP>
20.297

> <PUBCHEM_SHAPE_FINGERPRINT>
100836 57 10159698014692119138
10465860 250 17561082501386551480
10968037 39 18334860532716625766
11046707 91 18409446968869733128
12032990 46 18409167722807014732
12251169 10 18060418027818494140
13167823 11 18408602527187214402
13288520 33 18409730651148371639
13551218 46 18270963440792261598
13690532 89 18409730694483049495
13862211 1 18342737464162399199
14252887 29 17989215824084205230
17804303 29 18273497883401759577
17834072 33 18410577323021717172
1813 80 17968106291699631366
18186145 218 14923950067535008876
200 152 17530965761531918920
20281475 54 18337672035103360796
20767249 213 10735876175026745610
20828058 44 18273214175553485034
21267235 1 18410019844213228018
22485316 2 18408601440280660184
2297311 6 18130235869953600908
23402539 116 17846774109970031213
23463225 33 18411140233692529510
23559900 14 18270389602695558633
351380 180 10665231458300457486
351380 3 18259982652836299658
42 15 18342740719346176002
4214541 1 18340769252190604880
5104073 3 18271533095046590721
559249 180 18335415712557464698
7364860 26 18126566957732624024
83771 10 18407476665592062532

> <PUBCHEM_SHAPE_MULTIPOLES>
270.51
10.85
1.64
0.68
12.98
0.32
0
-5.61
1.62
-0.51
-0.11
-0.08
0
-0.42

> <PUBCHEM_SHAPE_SELFOVERLAP>
550.017

> <PUBCHEM_SHAPE_VOLUME>
158.1

> <PUBCHEM_COORDINATE_TYPE>
2
5
10

> <minimizedAffinity>
-6.26268

> <CNNscore>
0.8325195312

> <CNNaffinity>
5.0112729073

> <CNN_VS>
4.1719827652

> <CNNaffinity_variance>
0.2011697143

$$$$
7184


 15 15  0  0  0  0  0  0  0  0999 V2000
   -3.3793   -4.7688   16.8192 O   0  0  0  0  0  0  0  0  0  0  0  0
   -6.4888   -4.0620   14.2095 C   0  0  0  0  0  0  0  0  0  0  0  0
   -6.6416   -3.7195   15.5375 C   0  0  0  0  0  0  0  0  0  0  0  0
   -5.3288   -4.6327   13.7265 C   0  0  0  0  0  0  0  0  0  0  0  0
   -5.5887   -3.9582   16.4209 C   0  0  0  0  0  0  0  0  0  0  0  0
   -4.2761   -4.8714   14.6099 C   0  0  0  0  0  0  0  0  0  0  0  0
   -4.4059   -4.5341   15.9571 C   0  0  0  0  0  0  0  0  0  0  0  0
   -2.6416   -5.1706   16.3288 H   0  0  0  0  0  0  0  0  0  0  0  0
   -7.8721   -2.7024   12.8229 O   0  0  0  0  0  0  0  0  0  0  0  0
   -7.6100   -3.8082   13.2701 C   0  0  0  0  0  0  0  0  0  0  0  0
   -8.2787   -4.9619   12.9924 O   0  0  0  0  0  0  0  0  0  0  0  0
   -8.4865   -5.2478   11.6162 C   0  0  0  0  0  0  0  0  0  0  0  0
   -8.2808   -6.7383   11.3869 C   0  0  0  0  0  0  0  0  0  0  0  0
   -6.8020   -7.0886   11.2489 C   0  0  0  0  0  0  0  0  0  0  0  0
   -6.6101   -8.4539   10.6084 C   0  0  0  0  0  0  0  0  0  0  0  0
 11 12  1  0
 11 10  1  0
  9 10  2  0
  1  7  1  0
  1  8  1  0
 13 14  1  0
 13 12  1  0
 14 15  1  0
  2 10  1  0
  2  3  2  0
  2  4  1  0
  3  5  1  0
  4  6  2  0
  5  7  2  0
  6  7  1  0
M  END
> <PUBCHEM_COMPOUND_CID>
7184

> <PUBCHEM_CONFORMER_RMSD>
0.6

> <PUBCHEM_CONFORMER_DIVERSEORDER>
1
44
15
20
41
3
43
64
40
47
74
50
4
6
22
69
55
77
16
75
28
26
73
53
11
32
49
58
67
63
62
24
65
27
19
38
12
48
76
25
57
10
31
17
42
34
68
51
9
23
8
14
21
33
18
30
5
66
70
2
56
45
39
37
46
35
60
36
52
59
54
29
71
72
61
13
7

> <PUBCHEM_MMFF94_PARTIAL_CHARGES>
16
1 -0.43
10 -0.15
11 -0.15
12 -0.15
13 -0.15
14 0.08
2 -0.57
24 0.15
25 0.15
26 0.15
27 0.15
28 0.45
3 -0.53
6 0.28
8 0.09
9 0.63

> <PUBCHEM_EFFECTIVE_ROTOR_COUNT>
5

> <PUBCHEM_PHARMACOPHORE_FEATURES>
4
1 2 acceptor
1 3 donor
1 7 hydrophobe
6 8 10 11 12 13 14 rings

> <PUBCHEM_HEAVY_ATOM_COUNT>
14

> <PUBCHEM_ATOM_DEF_STEREO_COUNT>
0

> <PUBCHEM_ATOM_UDEF_STEREO_COUNT>
0

> <PUBCHEM_BOND_DEF_STEREO_COUNT>
0

> <PUBCHEM_BOND_UDEF_STEREO_COUNT>
0

> <PUBCHEM_ISOTOPIC_ATOM_COUNT>
0

> <PUBCHEM_COMPONENT_COUNT>
1

> <PUBCHEM_CACTVS_TAUTO_COUNT>
3

> <PUBCHEM_CONFORMER_ID>
00001C1000000001

> <PUBCHEM_MMFF94_ENERGY>
26.8162

> <PUBCHEM_FEATURE_SELFOVERLAP>
20.297

> <PUBCHEM_SHAPE_FINGERPRINT>
100836 57 10159698014692119138
10465860 250 17561082501386551480
10968037 39 18334860532716625766
11046707 91 18409446968869733128
12032990 46 18409167722807014732
12251169 10 18060418027818494140
13167823 11 18408602527187214402
13288520 33 18409730651148371639
13551218 46 18270963440792261598
13690532 89 18409730694483049495
13862211 1 18342737464162399199
14252887 29 17989215824084205230
17804303 29 18273497883401759577
17834072 33 18410577323021717172
1813 80 17968106291699631366
18186145 218 14923950067535008876
200 152 17530965761531918920
20281475 54 18337672035103360796
20767249 213 10735876175026745610
20828058 44 18273214175553485034
21267235 1 18410019844213228018
22485316 2 18408601440280660184
2297311 6 18130235869953600908
23402539 116 17846774109970031213
23463225 33 18411140233692529510
23559900 14 18270389602695558633
351380 180 10665231458300457486
351380 3 18259982652836299658
42 15 18342740719346176002
4214541 1 18340769252190604880
5104073 3 18271533095046590721
559249 180 18335415712557464698
7364860 26 18126566957732624024
83771 10 18407476665592062532

> <PUBCHEM_SHAPE_MULTIPOLES>
270.51
10.85
1.64
0.68
12.98
0.32
0
-5.61
1.62
-0.51
-0.11
-0.08
0
-0.42

> <PUBCHEM_SHAPE_SELFOVERLAP>
550.017

> <PUBCHEM_SHAPE_VOLUME>
158.1

> <PUBCHEM_COORDINATE_TYPE>
2
5
10

> <minimizedAffinity>
-6.12275

> <CNNscore>
0.8216558695

> <CNNaffinity>
5.5087952614

> <CNN_VS>
4.5263338089

> <CNNaffinity_variance>
0.1686099321

$$$$
7184


 15 15  0  0  0  0  0  0  0  0999 V2000
   -7.3681   -3.8555   17.2377 O   0  0  0  0  0  0  0  0  0  0  0  0
   -6.2265   -4.7481   13.3804 C   0  0  0  0  0  0  0  0  0  0  0  0
   -7.5558   -4.8740   13.7286 C   0  0  0  0  0  0  0  0  0  0  0  0
   -5.2670   -4.3326   14.2811 C   0  0  0  0  0  0  0  0  0  0  0  0
   -7.9424   -4.5711   15.0342 C   0  0  0  0  0  0  0  0  0  0  0  0
   -5.6536   -4.0299   15.5867 C   0  0  0  0  0  0  0  0  0  0  0  0
   -6.9913   -4.1491   15.9633 C   0  0  0  0  0  0  0  0  0  0  0  0
   -6.5836   -3.5810   17.7429 H   0  0  0  0  0  0  0  0  0  0  0  0
   -4.6959   -5.4596   11.6964 O   0  0  0  0  0  0  0  0  0  0  0  0
   -5.8157   -5.0711   11.9908 C   0  0  0  0  0  0  0  0  0  0  0  0
   -6.8474   -4.8746   11.1236 O   0  0  0  0  0  0  0  0  0  0  0  0
   -6.6755   -5.4066    9.8173 C   0  0  0  0  0  0  0  0  0  0  0  0
   -7.1051   -4.3597    8.7994 C   0  0  0  0  0  0  0  0  0  0  0  0
   -8.0490   -3.3302    9.4138 C   0  0  0  0  0  0  0  0  0  0  0  0
   -9.4966   -3.6104    9.0433 C   0  0  0  0  0  0  0  0  0  0  0  0
 11 12  1  0
 11 10  1  0
  9 10  2  0
  1  7  1  0
  1  8  1  0
 13 14  1  0
 13 12  1  0
 14 15  1  0
  2 10  1  0
  2  3  2  0
  2  4  1  0
  3  5  1  0
  4  6  2  0
  5  7  2  0
  6  7  1  0
M  END
> <PUBCHEM_COMPOUND_CID>
7184

> <PUBCHEM_CONFORMER_RMSD>
0.6

> <PUBCHEM_CONFORMER_DIVERSEORDER>
1
44
15
20
41
3
43
64
40
47
74
50
4
6
22
69
55
77
16
75
28
26
73
53
11
32
49
58
67
63
62
24
65
27
19
38
12
48
76
25
57
10
31
17
42
34
68
51
9
23
8
14
21
33
18
30
5
66
70
2
56
45
39
37
46
35
60
36
52
59
54
29
71
72
61
13
7

> <PUBCHEM_MMFF94_PARTIAL_CHARGES>
16
1 -0.43
10 -0.15
11 -0.15
12 -0.15
13 -0.15
14 0.08
2 -0.57
24 0.15
25 0.15
26 0.15
27 0.15
28 0.45
3 -0.53
6 0.28
8 0.09
9 0.63

> <PUBCHEM_EFFECTIVE_ROTOR_COUNT>
5

> <PUBCHEM_PHARMACOPHORE_FEATURES>
4
1 2 acceptor
1 3 donor
1 7 hydrophobe
6 8 10 11 12 13 14 rings

> <PUBCHEM_HEAVY_ATOM_COUNT>
14

> <PUBCHEM_ATOM_DEF_STEREO_COUNT>
0

> <PUBCHEM_ATOM_UDEF_STEREO_COUNT>
0

> <PUBCHEM_BOND_DEF_STEREO_COUNT>
0

> <PUBCHEM_BOND_UDEF_STEREO_COUNT>
0

> <PUBCHEM_ISOTOPIC_ATOM_COUNT>
0

> <PUBCHEM_COMPONENT_COUNT>
1

> <PUBCHEM_CACTVS_TAUTO_COUNT>
3

> <PUBCHEM_CONFORMER_ID>
00001C1000000001

> <PUBCHEM_MMFF94_ENERGY>
26.8162

> <PUBCHEM_FEATURE_SELFOVERLAP>
20.297

> <PUBCHEM_SHAPE_FINGERPRINT>
100836 57 10159698014692119138
10465860 250 17561082501386551480
10968037 39 18334860532716625766
11046707 91 18409446968869733128
12032990 46 18409167722807014732
12251169 10 18060418027818494140
13167823 11 18408602527187214402
13288520 33 18409730651148371639
13551218 46 18270963440792261598
13690532 89 18409730694483049495
13862211 1 18342737464162399199
14252887 29 17989215824084205230
17804303 29 18273497883401759577
17834072 33 18410577323021717172
1813 80 17968106291699631366
18186145 218 14923950067535008876
200 152 17530965761531918920
20281475 54 18337672035103360796
20767249 213 10735876175026745610
20828058 44 18273214175553485034
21267235 1 18410019844213228018
22485316 2 18408601440280660184
2297311 6 18130235869953600908
23402539 116 17846774109970031213
23463225 33 18411140233692529510
23559900 14 18270389602695558633
351380 180 10665231458300457486
351380 3 18259982652836299658
42 15 18342740719346176002
4214541 1 18340769252190604880
5104073 3 18271533095046590721
559249 180 18335415712557464698
7364860 26 18126566957732624024
83771 10 18407476665592062532

> <PUBCHEM_SHAPE_MULTIPOLES>
270.51
10.85
1.64
0.68
12.98
0.32
0
-5.61
1.62
-0.51
-0.11
-0.08
0
-0.42

> <PUBCHEM_SHAPE_SELFOVERLAP>
550.017

> <PUBCHEM_SHAPE_VOLUME>
158.1

> <PUBCHEM_COORDINATE_TYPE>
2
5
10

> <minimizedAffinity>
-6.05289

> <CNNscore>
0.8128792048

> <CNNaffinity>
5.2650079727

> <CNN_VS>
4.2798156738

> <CNNaffinity_variance>
0.5395141244

$$$$
