6013


 22 25  0  0  0  0  0  0  0  0999 V2000
  109.0883   11.4626   22.4853 O   0  0  0  0  0  0  0  0  0  0  0  0
  101.6303   19.1025   24.3930 O   0  0  0  0  0  0  0  0  0  0  0  0
  105.7967   13.0257   22.3769 C   0  0  0  0  0  0  0  0  0  0  0  0
  107.1187   12.7960   23.1340 C   0  0  0  0  0  0  0  0  0  0  0  0
  104.7054   13.6325   23.2641 C   0  0  0  0  0  0  0  0  0  0  0  0
  105.2057   15.0088   23.8058 C   0  0  0  0  0  0  0  0  0  0  0  0
  104.1325   15.7413   24.7004 C   0  0  0  0  0  0  0  0  0  0  0  0
  107.6426   14.1605   23.5990 C   0  0  0  0  0  0  0  0  0  0  0  0
  106.6072   14.8965   24.4685 C   0  0  0  0  0  0  0  0  0  0  0  0
  107.9413   12.1393   22.0089 C   0  0  0  0  0  0  0  0  0  0  0  0
  105.5401   11.6847   21.6939 C   0  0  0  0  0  0  0  0  0  0  0  0
  103.3935   13.8159   22.4910 C   0  0  0  0  0  0  0  0  0  0  0  0
  106.9471   11.1740   21.3341 C   0  0  0  0  0  0  0  0  0  0  0  0
  102.7825   15.7571   23.9716 C   0  0  0  0  0  0  0  0  0  0  0  0
  102.3222   14.4512   23.3679 C   0  0  0  0  0  0  0  0  0  0  0  0
  107.0105   11.8411   24.3501 C   0  0  0  0  0  0  0  0  0  0  0  0
  104.6185   17.1986   24.9519 C   0  0  0  0  0  0  0  0  0  0  0  0
  103.9367   15.0369   26.0621 C   0  0  0  0  0  0  0  0  0  0  0  0
  103.5296   18.1233   25.4725 C   0  0  0  0  0  0  0  0  0  0  0  0
  101.9983   16.8431   23.8666 C   0  0  0  0  0  0  0  0  0  0  0  0
  102.3451   18.1136   24.5433 C   0  0  0  0  0  0  0  0  0  0  0  0
  108.8083   10.6535   22.9444 H   0  0  0  0  0  0  0  0  0  0  0  0
  1 10  1  0
  1 22  1  0
  2 21  2  0
  3  4  1  0
  3  5  1  0
  3 11  1  0
  4  8  1  0
  4 10  1  0
  4 16  1  0
  5  6  1  0
  5 12  1  0
  6  7  1  0
  6  9  1  0
  7 14  1  0
  7 17  1  0
  7 18  1  0
  8  9  1  0
 10 13  1  0
 11 13  1  0
 12 15  1  0
 14 15  1  0
 14 20  2  0
 17 19  1  0
 19 21  1  0
 20 21  1  0
M  END
> <PUBCHEM_COMPOUND_CID>
6013

> <PUBCHEM_CONFORMER_RMSD>
0.6

> <PUBCHEM_CONFORMER_DIVERSEORDER>
1

> <PUBCHEM_MMFF94_PARTIAL_CHARGES>
11
1 -0.68
10 0.28
14 -0.28
15 0.14
19 0.06
2 -0.57
20 -0.14
21 0.49
48 0.15
49 0.4
7 0.14

> <PUBCHEM_EFFECTIVE_ROTOR_COUNT>
1.8

> <PUBCHEM_PHARMACOPHORE_FEATURES>
7
1 1 acceptor
1 1 donor
1 2 acceptor
5 3 4 10 11 13 rings
6 3 4 5 6 8 9 rings
6 5 6 7 12 14 15 rings
6 7 14 17 19 20 21 rings

> <PUBCHEM_HEAVY_ATOM_COUNT>
21

> <PUBCHEM_ATOM_DEF_STEREO_COUNT>
6

> <PUBCHEM_ATOM_UDEF_STEREO_COUNT>
0

> <PUBCHEM_BOND_DEF_STEREO_COUNT>
0

> <PUBCHEM_BOND_UDEF_STEREO_COUNT>
0

> <PUBCHEM_ISOTOPIC_ATOM_COUNT>
0

> <PUBCHEM_COMPONENT_COUNT>
1

> <PUBCHEM_CACTVS_TAUTO_COUNT>
5

> <PUBCHEM_CONFORMER_ID>
0000177D00000001

> <PUBCHEM_MMFF94_ENERGY>
67.5416

> <PUBCHEM_FEATURE_SELFOVERLAP>
35.618

> <PUBCHEM_SHAPE_FINGERPRINT>
10062212 137 18336825385559829163
10759866 29 17897457309511876188
10967382 1 18412548682291571786
11132069 177 18410018732180467827
11370993 70 18410569557056084199
11578080 2 16735503067342509174
12011746 2 18412547592124142406
12236239 1 18040155136873436768
12251169 10 18410008845387181634
12403259 226 18410006624652160988
12403259 415 18408880746209696412
12403260 363 18340481291412090749
12403814 3 17894914044785590877
12507557 5 18408881845467772304
12633257 1 18341888602346167976
12839892 36 18340758291450253690
13140716 1 18339643467883616216
13214271 11 18272369780793716703
13224815 77 18411987974316295335
13675066 3 18187087269080573787
14178342 30 18338527339117458393
14223421 5 18341052895787930134
14341114 176 18411985737129035682
14787075 74 18339640165090922602
14790565 3 18050014594947639924
15163728 17 14691189929019880809
15196674 1 18411420639180230811
15375358 24 18413110541697833299
15536298 74 18272376330249831326
15788980 27 17167859768361771669
16945 1 18267308633664624303
17349148 13 18260547844245275310
17492 89 18410012108956776131
1813 80 17168144512515476742
18186145 218 18411423903503023558
18522853 276 18412546492037592553
19050596 39 18410858775858764633
19784866 9 18412265021155473810
200 152 18202274819337965375
20715895 44 18116989984517715477
21033648 29 18262779827106925672
21267235 1 18410302427354843602
21421861 104 18042966467372004754
21637258 2 15647319828885568714
22182313 1 18189614934485510503
22854114 111 18409735070690792279
22854114 59 18343022189864506130
23402539 116 18272925046486162621
23557571 272 18059303161493107767
23559900 14 18343023255612643838
26918003 58 18409728456589012017
2748010 2 18410304609229794207
2838139 119 14835541671104639250
296302 2 16343984710473737934
335352 9 18411702045432157758
34934 24 18341610383102269379
350125 39 18410857681354741304
351380 180 18413386540454065762
3545911 37 18411703166439727155
42 15 18260548935156425576
5104073 3 18410294747868572393
59755656 215 18339930311854621398
633830 44 17988931080225984300
69090 78 18413386557386229218
7364860 26 18200601276388112774
9709674 26 18341058445033876271

> <PUBCHEM_SHAPE_MULTIPOLES>
420.43
9.43
2.1
1.06
1.16
0.42
0.43
-0.59
-2.56
-0.22
0.02
0.09
-0.22
0.11

> <PUBCHEM_SHAPE_SELFOVERLAP>
902.625

> <PUBCHEM_SHAPE_VOLUME>
230.1

> <PUBCHEM_COORDINATE_TYPE>
2
5
10

> <minimizedAffinity>
-10.54947

> <CNNscore>
0.8560417295

> <CNNaffinity>
8.0200767517

> <CNN_VS>
6.8655204773

> <CNNaffinity_variance>
0.8101118207

$$$$
6013


 22 25  0  0  0  0  0  0  0  0999 V2000
  102.2482   17.7441   26.7202 O   0  0  0  0  0  0  0  0  0  0  0  0
  107.9739   10.5759   20.9355 O   0  0  0  0  0  0  0  0  0  0  0  0
  103.0746   15.6654   23.8418 C   0  0  0  0  0  0  0  0  0  0  0  0
  103.5587   16.5033   25.0406 C   0  0  0  0  0  0  0  0  0  0  0  0
  104.1995   15.3433   22.8532 C   0  0  0  0  0  0  0  0  0  0  0  0
  105.3086   14.5365   23.5995 C   0  0  0  0  0  0  0  0  0  0  0  0
  106.4994   14.1148   22.6545 C   0  0  0  0  0  0  0  0  0  0  0  0
  104.5938   15.6748   25.8117 C   0  0  0  0  0  0  0  0  0  0  0  0
  105.7623   15.2461   24.9059 C   0  0  0  0  0  0  0  0  0  0  0  0
  102.2154   16.6970   25.7700 C   0  0  0  0  0  0  0  0  0  0  0  0
  101.8460   16.4258   23.3489 C   0  0  0  0  0  0  0  0  0  0  0  0
  103.6787   14.5392   21.6555 C   0  0  0  0  0  0  0  0  0  0  0  0
  101.2128   16.9855   24.6355 C   0  0  0  0  0  0  0  0  0  0  0  0
  105.9389   13.4666   21.3819 C   0  0  0  0  0  0  0  0  0  0  0  0
  104.8072   14.1921   20.6930 C   0  0  0  0  0  0  0  0  0  0  0  0
  104.1707   17.8769   24.6649 C   0  0  0  0  0  0  0  0  0  0  0  0
  107.3941   13.0969   23.4205 C   0  0  0  0  0  0  0  0  0  0  0  0
  107.3638   15.3263   22.2377 C   0  0  0  0  0  0  0  0  0  0  0  0
  108.3505   12.3288   22.5219 C   0  0  0  0  0  0  0  0  0  0  0  0
  106.4091   12.3256   20.8505 C   0  0  0  0  0  0  0  0  0  0  0  0
  107.5936   11.6412   21.4169 C   0  0  0  0  0  0  0  0  0  0  0  0
  102.2763   18.5942   26.2507 H   0  0  0  0  0  0  0  0  0  0  0  0
  1 10  1  0
  1 22  1  0
  2 21  2  0
  3  4  1  0
  3  5  1  0
  3 11  1  0
  4  8  1  0
  4 10  1  0
  4 16  1  0
  5  6  1  0
  5 12  1  0
  6  7  1  0
  6  9  1  0
  7 14  1  0
  7 17  1  0
  7 18  1  0
  8  9  1  0
 10 13  1  0
 11 13  1  0
 12 15  1  0
 14 15  1  0
 14 20  2  0
 17 19  1  0
 19 21  1  0
 20 21  1  0
M  END
> <PUBCHEM_COMPOUND_CID>
6013

> <PUBCHEM_CONFORMER_RMSD>
0.6

> <PUBCHEM_CONFORMER_DIVERSEORDER>
1

> <PUBCHEM_MMFF94_PARTIAL_CHARGES>
11
1 -0.68
10 0.28
14 -0.28
15 0.14
19 0.06
2 -0.57
20 -0.14
21 0.49
48 0.15
49 0.4
7 0.14

> <PUBCHEM_EFFECTIVE_ROTOR_COUNT>
1.8

> <PUBCHEM_PHARMACOPHORE_FEATURES>
7
1 1 acceptor
1 1 donor
1 2 acceptor
5 3 4 10 11 13 rings
6 3 4 5 6 8 9 rings
6 5 6 7 12 14 15 rings
6 7 14 17 19 20 21 rings

> <PUBCHEM_HEAVY_ATOM_COUNT>
21

> <PUBCHEM_ATOM_DEF_STEREO_COUNT>
6

> <PUBCHEM_ATOM_UDEF_STEREO_COUNT>
0

> <PUBCHEM_BOND_DEF_STEREO_COUNT>
0

> <PUBCHEM_BOND_UDEF_STEREO_COUNT>
0

> <PUBCHEM_ISOTOPIC_ATOM_COUNT>
0

> <PUBCHEM_COMPONENT_COUNT>
1

> <PUBCHEM_CACTVS_TAUTO_COUNT>
5

> <PUBCHEM_CONFORMER_ID>
0000177D00000001

> <PUBCHEM_MMFF94_ENERGY>
67.5416

> <PUBCHEM_FEATURE_SELFOVERLAP>
35.618

> <PUBCHEM_SHAPE_FINGERPRINT>
10062212 137 18336825385559829163
10759866 29 17897457309511876188
10967382 1 18412548682291571786
11132069 177 18410018732180467827
11370993 70 18410569557056084199
11578080 2 16735503067342509174
12011746 2 18412547592124142406
12236239 1 18040155136873436768
12251169 10 18410008845387181634
12403259 226 18410006624652160988
12403259 415 18408880746209696412
12403260 363 18340481291412090749
12403814 3 17894914044785590877
12507557 5 18408881845467772304
12633257 1 18341888602346167976
12839892 36 18340758291450253690
13140716 1 18339643467883616216
13214271 11 18272369780793716703
13224815 77 18411987974316295335
13675066 3 18187087269080573787
14178342 30 18338527339117458393
14223421 5 18341052895787930134
14341114 176 18411985737129035682
14787075 74 18339640165090922602
14790565 3 18050014594947639924
15163728 17 14691189929019880809
15196674 1 18411420639180230811
15375358 24 18413110541697833299
15536298 74 18272376330249831326
15788980 27 17167859768361771669
16945 1 18267308633664624303
17349148 13 18260547844245275310
17492 89 18410012108956776131
1813 80 17168144512515476742
18186145 218 18411423903503023558
18522853 276 18412546492037592553
19050596 39 18410858775858764633
19784866 9 18412265021155473810
200 152 18202274819337965375
20715895 44 18116989984517715477
21033648 29 18262779827106925672
21267235 1 18410302427354843602
21421861 104 18042966467372004754
21637258 2 15647319828885568714
22182313 1 18189614934485510503
22854114 111 18409735070690792279
22854114 59 18343022189864506130
23402539 116 18272925046486162621
23557571 272 18059303161493107767
23559900 14 18343023255612643838
26918003 58 18409728456589012017
2748010 2 18410304609229794207
2838139 119 14835541671104639250
296302 2 16343984710473737934
335352 9 18411702045432157758
34934 24 18341610383102269379
350125 39 18410857681354741304
351380 180 18413386540454065762
3545911 37 18411703166439727155
42 15 18260548935156425576
5104073 3 18410294747868572393
59755656 215 18339930311854621398
633830 44 17988931080225984300
69090 78 18413386557386229218
7364860 26 18200601276388112774
9709674 26 18341058445033876271

> <PUBCHEM_SHAPE_MULTIPOLES>
420.43
9.43
2.1
1.06
1.16
0.42
0.43
-0.59
-2.56
-0.22
0.02
0.09
-0.22
0.11

> <PUBCHEM_SHAPE_SELFOVERLAP>
902.625

> <PUBCHEM_SHAPE_VOLUME>
230.1

> <PUBCHEM_COORDINATE_TYPE>
2
5
10

> <minimizedAffinity>
-9.36128

> <CNNscore>
0.7969272137

> <CNNaffinity>
7.7555651665

> <CNN_VS>
6.1806211472

> <CNNaffinity_variance>
0.9044161439

$$$$
6013


 22 25  0  0  0  0  0  0  0  0999 V2000
  100.2381   16.5451   23.5198 O   0  0  0  0  0  0  0  0  0  0  0  0
  110.5380   13.3369   22.4033 O   0  0  0  0  0  0  0  0  0  0  0  0
  103.7498   16.1924   24.4324 C   0  0  0  0  0  0  0  0  0  0  0  0
  102.5036   15.5997   23.7473 C   0  0  0  0  0  0  0  0  0  0  0  0
  104.8546   15.1539   24.6501 C   0  0  0  0  0  0  0  0  0  0  0  0
  105.2841   14.5790   23.2634 C   0  0  0  0  0  0  0  0  0  0  0  0
  106.4544   13.5267   23.3730 C   0  0  0  0  0  0  0  0  0  0  0  0
  102.9174   15.1041   22.3560 C   0  0  0  0  0  0  0  0  0  0  0  0
  104.0642   14.0806   22.4391 C   0  0  0  0  0  0  0  0  0  0  0  0
  101.6011   16.8485   23.7446 C   0  0  0  0  0  0  0  0  0  0  0  0
  103.1754   16.9316   25.6383 C   0  0  0  0  0  0  0  0  0  0  0  0
  106.0656   15.7667   25.3644 C   0  0  0  0  0  0  0  0  0  0  0  0
  101.8258   17.4746   25.1348 C   0  0  0  0  0  0  0  0  0  0  0  0
  107.5819   14.1026   24.2394 C   0  0  0  0  0  0  0  0  0  0  0  0
  107.1747   14.7388   25.5476 C   0  0  0  0  0  0  0  0  0  0  0  0
  101.8239   14.4455   24.5272 C   0  0  0  0  0  0  0  0  0  0  0  0
  106.9828   13.2326   21.9386 C   0  0  0  0  0  0  0  0  0  0  0  0
  105.9827   12.2019   24.0140 C   0  0  0  0  0  0  0  0  0  0  0  0
  108.3346   12.5368   21.9175 C   0  0  0  0  0  0  0  0  0  0  0  0
  108.8836   14.0495   23.9108 C   0  0  0  0  0  0  0  0  0  0  0  0
  109.3454   13.3311   22.7012 C   0  0  0  0  0  0  0  0  0  0  0  0
   99.8771   16.1134   24.3118 H   0  0  0  0  0  0  0  0  0  0  0  0
  1 10  1  0
  1 22  1  0
  2 21  2  0
  3  4  1  0
  3  5  1  0
  3 11  1  0
  4  8  1  0
  4 10  1  0
  4 16  1  0
  5  6  1  0
  5 12  1  0
  6  7  1  0
  6  9  1  0
  7 14  1  0
  7 17  1  0
  7 18  1  0
  8  9  1  0
 10 13  1  0
 11 13  1  0
 12 15  1  0
 14 15  1  0
 14 20  2  0
 17 19  1  0
 19 21  1  0
 20 21  1  0
M  END
> <PUBCHEM_COMPOUND_CID>
6013

> <PUBCHEM_CONFORMER_RMSD>
0.6

> <PUBCHEM_CONFORMER_DIVERSEORDER>
1

> <PUBCHEM_MMFF94_PARTIAL_CHARGES>
11
1 -0.68
10 0.28
14 -0.28
15 0.14
19 0.06
2 -0.57
20 -0.14
21 0.49
48 0.15
49 0.4
7 0.14

> <PUBCHEM_EFFECTIVE_ROTOR_COUNT>
1.8

> <PUBCHEM_PHARMACOPHORE_FEATURES>
7
1 1 acceptor
1 1 donor
1 2 acceptor
5 3 4 10 11 13 rings
6 3 4 5 6 8 9 rings
6 5 6 7 12 14 15 rings
6 7 14 17 19 20 21 rings

> <PUBCHEM_HEAVY_ATOM_COUNT>
21

> <PUBCHEM_ATOM_DEF_STEREO_COUNT>
6

> <PUBCHEM_ATOM_UDEF_STEREO_COUNT>
0

> <PUBCHEM_BOND_DEF_STEREO_COUNT>
0

> <PUBCHEM_BOND_UDEF_STEREO_COUNT>
0

> <PUBCHEM_ISOTOPIC_ATOM_COUNT>
0

> <PUBCHEM_COMPONENT_COUNT>
1

> <PUBCHEM_CACTVS_TAUTO_COUNT>
5

> <PUBCHEM_CONFORMER_ID>
0000177D00000001

> <PUBCHEM_MMFF94_ENERGY>
67.5416

> <PUBCHEM_FEATURE_SELFOVERLAP>
35.618

> <PUBCHEM_SHAPE_FINGERPRINT>
10062212 137 18336825385559829163
10759866 29 17897457309511876188
10967382 1 18412548682291571786
11132069 177 18410018732180467827
11370993 70 18410569557056084199
11578080 2 16735503067342509174
12011746 2 18412547592124142406
12236239 1 18040155136873436768
12251169 10 18410008845387181634
12403259 226 18410006624652160988
12403259 415 18408880746209696412
12403260 363 18340481291412090749
12403814 3 17894914044785590877
12507557 5 18408881845467772304
12633257 1 18341888602346167976
12839892 36 18340758291450253690
13140716 1 18339643467883616216
13214271 11 18272369780793716703
13224815 77 18411987974316295335
13675066 3 18187087269080573787
14178342 30 18338527339117458393
14223421 5 18341052895787930134
14341114 176 18411985737129035682
14787075 74 18339640165090922602
14790565 3 18050014594947639924
15163728 17 14691189929019880809
15196674 1 18411420639180230811
15375358 24 18413110541697833299
15536298 74 18272376330249831326
15788980 27 17167859768361771669
16945 1 18267308633664624303
17349148 13 18260547844245275310
17492 89 18410012108956776131
1813 80 17168144512515476742
18186145 218 18411423903503023558
18522853 276 18412546492037592553
19050596 39 18410858775858764633
19784866 9 18412265021155473810
200 152 18202274819337965375
20715895 44 18116989984517715477
21033648 29 18262779827106925672
21267235 1 18410302427354843602
21421861 104 18042966467372004754
21637258 2 15647319828885568714
22182313 1 18189614934485510503
22854114 111 18409735070690792279
22854114 59 18343022189864506130
23402539 116 18272925046486162621
23557571 272 18059303161493107767
23559900 14 18343023255612643838
26918003 58 18409728456589012017
2748010 2 18410304609229794207
2838139 119 14835541671104639250
296302 2 16343984710473737934
335352 9 18411702045432157758
34934 24 18341610383102269379
350125 39 18410857681354741304
351380 180 18413386540454065762
3545911 37 18411703166439727155
42 15 18260548935156425576
5104073 3 18410294747868572393
59755656 215 18339930311854621398
633830 44 17988931080225984300
69090 78 18413386557386229218
7364860 26 18200601276388112774
9709674 26 18341058445033876271

> <PUBCHEM_SHAPE_MULTIPOLES>
420.43
9.43
2.1
1.06
1.16
0.42
0.43
-0.59
-2.56
-0.22
0.02
0.09
-0.22
0.11

> <PUBCHEM_SHAPE_SELFOVERLAP>
902.625

> <PUBCHEM_SHAPE_VOLUME>
230.1

> <PUBCHEM_COORDINATE_TYPE>
2
5
10

> <minimizedAffinity>
-8.77251

> <CNNscore>
0.7849109769

> <CNNaffinity>
7.5284495354

> <CNN_VS>
5.9091625214

> <CNNaffinity_variance>
0.4730769694

$$$$
6013


 22 25  0  0  0  0  0  0  0  0999 V2000
  100.8444   18.5016   25.6391 O   0  0  0  0  0  0  0  0  0  0  0  0
  107.6989   10.2348   24.1212 O   0  0  0  0  0  0  0  0  0  0  0  0
  102.1707   15.5058   24.0404 C   0  0  0  0  0  0  0  0  0  0  0  0
  102.4391   16.8191   24.8000 C   0  0  0  0  0  0  0  0  0  0  0  0
  103.4361   14.9216   23.4048 C   0  0  0  0  0  0  0  0  0  0  0  0
  104.4769   14.6321   24.5321 C   0  0  0  0  0  0  0  0  0  0  0  0
  105.8071   13.9838   23.9852 C   0  0  0  0  0  0  0  0  0  0  0  0
  103.4046   16.5124   25.9516 C   0  0  0  0  0  0  0  0  0  0  0  0
  104.7078   15.8719   25.4407 C   0  0  0  0  0  0  0  0  0  0  0  0
  101.0003   17.1544   25.2373 C   0  0  0  0  0  0  0  0  0  0  0  0
  100.9798   15.8475   23.1484 C   0  0  0  0  0  0  0  0  0  0  0  0
  103.1293   13.6353   22.6279 C   0  0  0  0  0  0  0  0  0  0  0  0
  100.1468   16.8253   23.9969 C   0  0  0  0  0  0  0  0  0  0  0  0
  105.4625   12.8018   23.0699 C   0  0  0  0  0  0  0  0  0  0  0  0
  104.3960   13.0399   22.0269 C   0  0  0  0  0  0  0  0  0  0  0  0
  103.0182   17.9633   23.9295 C   0  0  0  0  0  0  0  0  0  0  0  0
  106.6451   13.4892   25.2003 C   0  0  0  0  0  0  0  0  0  0  0  0
  106.6506   14.9925   23.1729 C   0  0  0  0  0  0  0  0  0  0  0  0
  107.7567   12.5232   24.8217 C   0  0  0  0  0  0  0  0  0  0  0  0
  106.0642   11.6021   23.1335 C   0  0  0  0  0  0  0  0  0  0  0  0
  107.1972   11.3551   24.0542 C   0  0  0  0  0  0  0  0  0  0  0  0
  100.8882   19.0713   24.8534 H   0  0  0  0  0  0  0  0  0  0  0  0
  1 10  1  0
  1 22  1  0
  2 21  2  0
  3  4  1  0
  3  5  1  0
  3 11  1  0
  4  8  1  0
  4 10  1  0
  4 16  1  0
  5  6  1  0
  5 12  1  0
  6  7  1  0
  6  9  1  0
  7 14  1  0
  7 17  1  0
  7 18  1  0
  8  9  1  0
 10 13  1  0
 11 13  1  0
 12 15  1  0
 14 15  1  0
 14 20  2  0
 17 19  1  0
 19 21  1  0
 20 21  1  0
M  END
> <PUBCHEM_COMPOUND_CID>
6013

> <PUBCHEM_CONFORMER_RMSD>
0.6

> <PUBCHEM_CONFORMER_DIVERSEORDER>
1

> <PUBCHEM_MMFF94_PARTIAL_CHARGES>
11
1 -0.68
10 0.28
14 -0.28
15 0.14
19 0.06
2 -0.57
20 -0.14
21 0.49
48 0.15
49 0.4
7 0.14

> <PUBCHEM_EFFECTIVE_ROTOR_COUNT>
1.8

> <PUBCHEM_PHARMACOPHORE_FEATURES>
7
1 1 acceptor
1 1 donor
1 2 acceptor
5 3 4 10 11 13 rings
6 3 4 5 6 8 9 rings
6 5 6 7 12 14 15 rings
6 7 14 17 19 20 21 rings

> <PUBCHEM_HEAVY_ATOM_COUNT>
21

> <PUBCHEM_ATOM_DEF_STEREO_COUNT>
6

> <PUBCHEM_ATOM_UDEF_STEREO_COUNT>
0

> <PUBCHEM_BOND_DEF_STEREO_COUNT>
0

> <PUBCHEM_BOND_UDEF_STEREO_COUNT>
0

> <PUBCHEM_ISOTOPIC_ATOM_COUNT>
0

> <PUBCHEM_COMPONENT_COUNT>
1

> <PUBCHEM_CACTVS_TAUTO_COUNT>
5

> <PUBCHEM_CONFORMER_ID>
0000177D00000001

> <PUBCHEM_MMFF94_ENERGY>
67.5416

> <PUBCHEM_FEATURE_SELFOVERLAP>
35.618

> <PUBCHEM_SHAPE_FINGERPRINT>
10062212 137 18336825385559829163
10759866 29 17897457309511876188
10967382 1 18412548682291571786
11132069 177 18410018732180467827
11370993 70 18410569557056084199
11578080 2 16735503067342509174
12011746 2 18412547592124142406
12236239 1 18040155136873436768
12251169 10 18410008845387181634
12403259 226 18410006624652160988
12403259 415 18408880746209696412
12403260 363 18340481291412090749
12403814 3 17894914044785590877
12507557 5 18408881845467772304
12633257 1 18341888602346167976
12839892 36 18340758291450253690
13140716 1 18339643467883616216
13214271 11 18272369780793716703
13224815 77 18411987974316295335
13675066 3 18187087269080573787
14178342 30 18338527339117458393
14223421 5 18341052895787930134
14341114 176 18411985737129035682
14787075 74 18339640165090922602
14790565 3 18050014594947639924
15163728 17 14691189929019880809
15196674 1 18411420639180230811
15375358 24 18413110541697833299
15536298 74 18272376330249831326
15788980 27 17167859768361771669
16945 1 18267308633664624303
17349148 13 18260547844245275310
17492 89 18410012108956776131
1813 80 17168144512515476742
18186145 218 18411423903503023558
18522853 276 18412546492037592553
19050596 39 18410858775858764633
19784866 9 18412265021155473810
200 152 18202274819337965375
20715895 44 18116989984517715477
21033648 29 18262779827106925672
21267235 1 18410302427354843602
21421861 104 18042966467372004754
21637258 2 15647319828885568714
22182313 1 18189614934485510503
22854114 111 18409735070690792279
22854114 59 18343022189864506130
23402539 116 18272925046486162621
23557571 272 18059303161493107767
23559900 14 18343023255612643838
26918003 58 18409728456589012017
2748010 2 18410304609229794207
2838139 119 14835541671104639250
296302 2 16343984710473737934
335352 9 18411702045432157758
34934 24 18341610383102269379
350125 39 18410857681354741304
351380 180 18413386540454065762
3545911 37 18411703166439727155
42 15 18260548935156425576
5104073 3 18410294747868572393
59755656 215 18339930311854621398
633830 44 17988931080225984300
69090 78 18413386557386229218
7364860 26 18200601276388112774
9709674 26 18341058445033876271

> <PUBCHEM_SHAPE_MULTIPOLES>
420.43
9.43
2.1
1.06
1.16
0.42
0.43
-0.59
-2.56
-0.22
0.02
0.09
-0.22
0.11

> <PUBCHEM_SHAPE_SELFOVERLAP>
902.625

> <PUBCHEM_SHAPE_VOLUME>
230.1

> <PUBCHEM_COORDINATE_TYPE>
2
5
10

> <minimizedAffinity>
-5.87479

> <CNNscore>
0.5168851614

> <CNNaffinity>
7.1762485504

> <CNN_VS>
3.7092964649

> <CNNaffinity_variance>
0.7023637295

$$$$
6013


 22 25  0  0  0  0  0  0  0  0999 V2000
  101.8462   18.7764   24.5498 O   0  0  0  0  0  0  0  0  0  0  0  0
  110.4179   12.3451   22.8784 O   0  0  0  0  0  0  0  0  0  0  0  0
  104.3097   16.2106   25.3481 C   0  0  0  0  0  0  0  0  0  0  0  0
  103.4512   16.9237   24.2859 C   0  0  0  0  0  0  0  0  0  0  0  0
  104.9139   14.8993   24.8364 C   0  0  0  0  0  0  0  0  0  0  0  0
  105.8189   15.2107   23.6028 C   0  0  0  0  0  0  0  0  0  0  0  0
  106.5277   13.9258   23.0237 C   0  0  0  0  0  0  0  0  0  0  0  0
  104.3626   17.2929   23.1088 C   0  0  0  0  0  0  0  0  0  0  0  0
  105.0706   16.0534   22.5324 C   0  0  0  0  0  0  0  0  0  0  0  0
  102.9615   18.1216   25.1222 C   0  0  0  0  0  0  0  0  0  0  0  0
  103.4047   16.1831   26.5773 C   0  0  0  0  0  0  0  0  0  0  0  0
  105.7328   14.1975   25.9269 C   0  0  0  0  0  0  0  0  0  0  0  0
  102.6212   17.5055   26.4933 C   0  0  0  0  0  0  0  0  0  0  0  0
  107.1945   13.1493   24.1666 C   0  0  0  0  0  0  0  0  0  0  0  0
  106.3596   12.9119   25.4030 C   0  0  0  0  0  0  0  0  0  0  0  0
  102.2452   16.0990   23.7684 C   0  0  0  0  0  0  0  0  0  0  0  0
  107.6015   14.3825   21.9933 C   0  0  0  0  0  0  0  0  0  0  0  0
  105.5275   12.9816   22.3189 C   0  0  0  0  0  0  0  0  0  0  0  0
  108.6056   13.2976   21.6375 C   0  0  0  0  0  0  0  0  0  0  0  0
  108.4455   12.6621   24.1141 C   0  0  0  0  0  0  0  0  0  0  0  0
  109.2611   12.7613   22.8823 C   0  0  0  0  0  0  0  0  0  0  0  0
  101.0638   18.2086   24.6472 H   0  0  0  0  0  0  0  0  0  0  0  0
  1 10  1  0
  1 22  1  0
  2 21  2  0
  3  4  1  0
  3  5  1  0
  3 11  1  0
  4  8  1  0
  4 10  1  0
  4 16  1  0
  5  6  1  0
  5 12  1  0
  6  7  1  0
  6  9  1  0
  7 14  1  0
  7 17  1  0
  7 18  1  0
  8  9  1  0
 10 13  1  0
 11 13  1  0
 12 15  1  0
 14 15  1  0
 14 20  2  0
 17 19  1  0
 19 21  1  0
 20 21  1  0
M  END
> <PUBCHEM_COMPOUND_CID>
6013

> <PUBCHEM_CONFORMER_RMSD>
0.6

> <PUBCHEM_CONFORMER_DIVERSEORDER>
1

> <PUBCHEM_MMFF94_PARTIAL_CHARGES>
11
1 -0.68
10 0.28
14 -0.28
15 0.14
19 0.06
2 -0.57
20 -0.14
21 0.49
48 0.15
49 0.4
7 0.14

> <PUBCHEM_EFFECTIVE_ROTOR_COUNT>
1.8

> <PUBCHEM_PHARMACOPHORE_FEATURES>
7
1 1 acceptor
1 1 donor
1 2 acceptor
5 3 4 10 11 13 rings
6 3 4 5 6 8 9 rings
6 5 6 7 12 14 15 rings
6 7 14 17 19 20 21 rings

> <PUBCHEM_HEAVY_ATOM_COUNT>
21

> <PUBCHEM_ATOM_DEF_STEREO_COUNT>
6

> <PUBCHEM_ATOM_UDEF_STEREO_COUNT>
0

> <PUBCHEM_BOND_DEF_STEREO_COUNT>
0

> <PUBCHEM_BOND_UDEF_STEREO_COUNT>
0

> <PUBCHEM_ISOTOPIC_ATOM_COUNT>
0

> <PUBCHEM_COMPONENT_COUNT>
1

> <PUBCHEM_CACTVS_TAUTO_COUNT>
5

> <PUBCHEM_CONFORMER_ID>
0000177D00000001

> <PUBCHEM_MMFF94_ENERGY>
67.5416

> <PUBCHEM_FEATURE_SELFOVERLAP>
35.618

> <PUBCHEM_SHAPE_FINGERPRINT>
10062212 137 18336825385559829163
10759866 29 17897457309511876188
10967382 1 18412548682291571786
11132069 177 18410018732180467827
11370993 70 18410569557056084199
11578080 2 16735503067342509174
12011746 2 18412547592124142406
12236239 1 18040155136873436768
12251169 10 18410008845387181634
12403259 226 18410006624652160988
12403259 415 18408880746209696412
12403260 363 18340481291412090749
12403814 3 17894914044785590877
12507557 5 18408881845467772304
12633257 1 18341888602346167976
12839892 36 18340758291450253690
13140716 1 18339643467883616216
13214271 11 18272369780793716703
13224815 77 18411987974316295335
13675066 3 18187087269080573787
14178342 30 18338527339117458393
14223421 5 18341052895787930134
14341114 176 18411985737129035682
14787075 74 18339640165090922602
14790565 3 18050014594947639924
15163728 17 14691189929019880809
15196674 1 18411420639180230811
15375358 24 18413110541697833299
15536298 74 18272376330249831326
15788980 27 17167859768361771669
16945 1 18267308633664624303
17349148 13 18260547844245275310
17492 89 18410012108956776131
1813 80 17168144512515476742
18186145 218 18411423903503023558
18522853 276 18412546492037592553
19050596 39 18410858775858764633
19784866 9 18412265021155473810
200 152 18202274819337965375
20715895 44 18116989984517715477
21033648 29 18262779827106925672
21267235 1 18410302427354843602
21421861 104 18042966467372004754
21637258 2 15647319828885568714
22182313 1 18189614934485510503
22854114 111 18409735070690792279
22854114 59 18343022189864506130
23402539 116 18272925046486162621
23557571 272 18059303161493107767
23559900 14 18343023255612643838
26918003 58 18409728456589012017
2748010 2 18410304609229794207
2838139 119 14835541671104639250
296302 2 16343984710473737934
335352 9 18411702045432157758
34934 24 18341610383102269379
350125 39 18410857681354741304
351380 180 18413386540454065762
3545911 37 18411703166439727155
42 15 18260548935156425576
5104073 3 18410294747868572393
59755656 215 18339930311854621398
633830 44 17988931080225984300
69090 78 18413386557386229218
7364860 26 18200601276388112774
9709674 26 18341058445033876271

> <PUBCHEM_SHAPE_MULTIPOLES>
420.43
9.43
2.1
1.06
1.16
0.42
0.43
-0.59
-2.56
-0.22
0.02
0.09
-0.22
0.11

> <PUBCHEM_SHAPE_SELFOVERLAP>
902.625

> <PUBCHEM_SHAPE_VOLUME>
230.1

> <PUBCHEM_COORDINATE_TYPE>
2
5
10

> <minimizedAffinity>
-4.44315

> <CNNscore>
0.5070732832

> <CNNaffinity>
7.1503582001

> <CNN_VS>
3.6257555485

> <CNNaffinity_variance>
0.6235128045

$$$$
6013


 22 25  0  0  0  0  0  0  0  0999 V2000
  100.2173   16.7140   24.8947 O   0  0  0  0  0  0  0  0  0  0  0  0
  109.5687   11.6470   22.7723 O   0  0  0  0  0  0  0  0  0  0  0  0
  102.6823   14.9513   22.8682 C   0  0  0  0  0  0  0  0  0  0  0  0
  102.3849   15.9254   24.0243 C   0  0  0  0  0  0  0  0  0  0  0  0
  104.1489   14.9873   22.4276 C   0  0  0  0  0  0  0  0  0  0  0  0
  105.0483   14.5956   23.6424 C   0  0  0  0  0  0  0  0  0  0  0  0
  106.5834   14.5594   23.2809 C   0  0  0  0  0  0  0  0  0  0  0  0
  103.2162   15.4898   25.2375 C   0  0  0  0  0  0  0  0  0  0  0  0
  104.7183   15.4406   24.9046 C   0  0  0  0  0  0  0  0  0  0  0  0
  100.8684   15.6922   24.1649 C   0  0  0  0  0  0  0  0  0  0  0  0
  101.5910   15.2660   21.8481 C   0  0  0  0  0  0  0  0  0  0  0  0
  104.4041   14.0335   21.2540 C   0  0  0  0  0  0  0  0  0  0  0  0
  100.3654   15.6193   22.7099 C   0  0  0  0  0  0  0  0  0  0  0  0
  106.7892   13.7389   22.0010 C   0  0  0  0  0  0  0  0  0  0  0  0
  105.8705   14.0475   20.8423 C   0  0  0  0  0  0  0  0  0  0  0  0
  102.6739   17.4146   23.7062 C   0  0  0  0  0  0  0  0  0  0  0  0
  107.3488   13.8993   24.4649 C   0  0  0  0  0  0  0  0  0  0  0  0
  107.1551   15.9754   23.0427 C   0  0  0  0  0  0  0  0  0  0  0  0
  108.7606   13.4608   24.1095 C   0  0  0  0  0  0  0  0  0  0  0  0
  107.7381   12.7987   21.8559 C   0  0  0  0  0  0  0  0  0  0  0  0
  108.7398   12.5434   22.9160 C   0  0  0  0  0  0  0  0  0  0  0  0
  100.1853   17.5180   24.3502 H   0  0  0  0  0  0  0  0  0  0  0  0
  1 10  1  0
  1 22  1  0
  2 21  2  0
  3  4  1  0
  3  5  1  0
  3 11  1  0
  4  8  1  0
  4 10  1  0
  4 16  1  0
  5  6  1  0
  5 12  1  0
  6  7  1  0
  6  9  1  0
  7 14  1  0
  7 17  1  0
  7 18  1  0
  8  9  1  0
 10 13  1  0
 11 13  1  0
 12 15  1  0
 14 15  1  0
 14 20  2  0
 17 19  1  0
 19 21  1  0
 20 21  1  0
M  END
> <PUBCHEM_COMPOUND_CID>
6013

> <PUBCHEM_CONFORMER_RMSD>
0.6

> <PUBCHEM_CONFORMER_DIVERSEORDER>
1

> <PUBCHEM_MMFF94_PARTIAL_CHARGES>
11
1 -0.68
10 0.28
14 -0.28
15 0.14
19 0.06
2 -0.57
20 -0.14
21 0.49
48 0.15
49 0.4
7 0.14

> <PUBCHEM_EFFECTIVE_ROTOR_COUNT>
1.8

> <PUBCHEM_PHARMACOPHORE_FEATURES>
7
1 1 acceptor
1 1 donor
1 2 acceptor
5 3 4 10 11 13 rings
6 3 4 5 6 8 9 rings
6 5 6 7 12 14 15 rings
6 7 14 17 19 20 21 rings

> <PUBCHEM_HEAVY_ATOM_COUNT>
21

> <PUBCHEM_ATOM_DEF_STEREO_COUNT>
6

> <PUBCHEM_ATOM_UDEF_STEREO_COUNT>
0

> <PUBCHEM_BOND_DEF_STEREO_COUNT>
0

> <PUBCHEM_BOND_UDEF_STEREO_COUNT>
0

> <PUBCHEM_ISOTOPIC_ATOM_COUNT>
0

> <PUBCHEM_COMPONENT_COUNT>
1

> <PUBCHEM_CACTVS_TAUTO_COUNT>
5

> <PUBCHEM_CONFORMER_ID>
0000177D00000001

> <PUBCHEM_MMFF94_ENERGY>
67.5416

> <PUBCHEM_FEATURE_SELFOVERLAP>
35.618

> <PUBCHEM_SHAPE_FINGERPRINT>
10062212 137 18336825385559829163
10759866 29 17897457309511876188
10967382 1 18412548682291571786
11132069 177 18410018732180467827
11370993 70 18410569557056084199
11578080 2 16735503067342509174
12011746 2 18412547592124142406
12236239 1 18040155136873436768
12251169 10 18410008845387181634
12403259 226 18410006624652160988
12403259 415 18408880746209696412
12403260 363 18340481291412090749
12403814 3 17894914044785590877
12507557 5 18408881845467772304
12633257 1 18341888602346167976
12839892 36 18340758291450253690
13140716 1 18339643467883616216
13214271 11 18272369780793716703
13224815 77 18411987974316295335
13675066 3 18187087269080573787
14178342 30 18338527339117458393
14223421 5 18341052895787930134
14341114 176 18411985737129035682
14787075 74 18339640165090922602
14790565 3 18050014594947639924
15163728 17 14691189929019880809
15196674 1 18411420639180230811
15375358 24 18413110541697833299
15536298 74 18272376330249831326
15788980 27 17167859768361771669
16945 1 18267308633664624303
17349148 13 18260547844245275310
17492 89 18410012108956776131
1813 80 17168144512515476742
18186145 218 18411423903503023558
18522853 276 18412546492037592553
19050596 39 18410858775858764633
19784866 9 18412265021155473810
200 152 18202274819337965375
20715895 44 18116989984517715477
21033648 29 18262779827106925672
21267235 1 18410302427354843602
21421861 104 18042966467372004754
21637258 2 15647319828885568714
22182313 1 18189614934485510503
22854114 111 18409735070690792279
22854114 59 18343022189864506130
23402539 116 18272925046486162621
23557571 272 18059303161493107767
23559900 14 18343023255612643838
26918003 58 18409728456589012017
2748010 2 18410304609229794207
2838139 119 14835541671104639250
296302 2 16343984710473737934
335352 9 18411702045432157758
34934 24 18341610383102269379
350125 39 18410857681354741304
351380 180 18413386540454065762
3545911 37 18411703166439727155
42 15 18260548935156425576
5104073 3 18410294747868572393
59755656 215 18339930311854621398
633830 44 17988931080225984300
69090 78 18413386557386229218
7364860 26 18200601276388112774
9709674 26 18341058445033876271

> <PUBCHEM_SHAPE_MULTIPOLES>
420.43
9.43
2.1
1.06
1.16
0.42
0.43
-0.59
-2.56
-0.22
0.02
0.09
-0.22
0.11

> <PUBCHEM_SHAPE_SELFOVERLAP>
902.625

> <PUBCHEM_SHAPE_VOLUME>
230.1

> <PUBCHEM_COORDINATE_TYPE>
2
5
10

> <minimizedAffinity>
-5.40114

> <CNNscore>
0.4145598114

> <CNNaffinity>
7.0193805695

> <CNN_VS>
2.9099531174

> <CNNaffinity_variance>
0.2693642676

$$$$
6013


 22 25  0  0  0  0  0  0  0  0999 V2000
  108.6755   10.9196   22.4808 O   0  0  0  0  0  0  0  0  0  0  0  0
  100.5596   17.4294   25.5442 O   0  0  0  0  0  0  0  0  0  0  0  0
  107.1159   14.0063   23.6338 C   0  0  0  0  0  0  0  0  0  0  0  0
  107.0188   12.7184   22.7939 C   0  0  0  0  0  0  0  0  0  0  0  0
  106.0161   15.0172   23.2948 C   0  0  0  0  0  0  0  0  0  0  0  0
  104.6268   14.3582   23.5663 C   0  0  0  0  0  0  0  0  0  0  0  0
  103.4206   15.3364   23.2888 C   0  0  0  0  0  0  0  0  0  0  0  0
  105.6840   12.0376   23.1214 C   0  0  0  0  0  0  0  0  0  0  0  0
  104.4925   12.9779   22.8644 C   0  0  0  0  0  0  0  0  0  0  0  0
  108.2648   11.9808   23.3208 C   0  0  0  0  0  0  0  0  0  0  0  0
  108.5779   14.4195   23.4844 C   0  0  0  0  0  0  0  0  0  0  0  0
  106.1612   16.3004   24.1221 C   0  0  0  0  0  0  0  0  0  0  0  0
  109.3382   13.0826   23.4165 C   0  0  0  0  0  0  0  0  0  0  0  0
  103.6764   16.6769   23.9897 C   0  0  0  0  0  0  0  0  0  0  0  0
  105.0455   17.2881   23.8061 C   0  0  0  0  0  0  0  0  0  0  0  0
  107.1281   12.9346   21.2630 C   0  0  0  0  0  0  0  0  0  0  0  0
  102.1230   14.6828   23.8476 C   0  0  0  0  0  0  0  0  0  0  0  0
  103.2333   15.6099   21.7793 C   0  0  0  0  0  0  0  0  0  0  0  0
  100.9624   15.6550   23.9884 C   0  0  0  0  0  0  0  0  0  0  0  0
  102.7575   17.3292   24.7216 C   0  0  0  0  0  0  0  0  0  0  0  0
  101.3662   16.8347   24.8321 C   0  0  0  0  0  0  0  0  0  0  0  0
  109.0646   11.2912   21.6719 H   0  0  0  0  0  0  0  0  0  0  0  0
  1 10  1  0
  1 22  1  0
  2 21  2  0
  3  4  1  0
  3  5  1  0
  3 11  1  0
  4  8  1  0
  4 10  1  0
  4 16  1  0
  5  6  1  0
  5 12  1  0
  6  7  1  0
  6  9  1  0
  7 14  1  0
  7 17  1  0
  7 18  1  0
  8  9  1  0
 10 13  1  0
 11 13  1  0
 12 15  1  0
 14 15  1  0
 14 20  2  0
 17 19  1  0
 19 21  1  0
 20 21  1  0
M  END
> <PUBCHEM_COMPOUND_CID>
6013

> <PUBCHEM_CONFORMER_RMSD>
0.6

> <PUBCHEM_CONFORMER_DIVERSEORDER>
1

> <PUBCHEM_MMFF94_PARTIAL_CHARGES>
11
1 -0.68
10 0.28
14 -0.28
15 0.14
19 0.06
2 -0.57
20 -0.14
21 0.49
48 0.15
49 0.4
7 0.14

> <PUBCHEM_EFFECTIVE_ROTOR_COUNT>
1.8

> <PUBCHEM_PHARMACOPHORE_FEATURES>
7
1 1 acceptor
1 1 donor
1 2 acceptor
5 3 4 10 11 13 rings
6 3 4 5 6 8 9 rings
6 5 6 7 12 14 15 rings
6 7 14 17 19 20 21 rings

> <PUBCHEM_HEAVY_ATOM_COUNT>
21

> <PUBCHEM_ATOM_DEF_STEREO_COUNT>
6

> <PUBCHEM_ATOM_UDEF_STEREO_COUNT>
0

> <PUBCHEM_BOND_DEF_STEREO_COUNT>
0

> <PUBCHEM_BOND_UDEF_STEREO_COUNT>
0

> <PUBCHEM_ISOTOPIC_ATOM_COUNT>
0

> <PUBCHEM_COMPONENT_COUNT>
1

> <PUBCHEM_CACTVS_TAUTO_COUNT>
5

> <PUBCHEM_CONFORMER_ID>
0000177D00000001

> <PUBCHEM_MMFF94_ENERGY>
67.5416

> <PUBCHEM_FEATURE_SELFOVERLAP>
35.618

> <PUBCHEM_SHAPE_FINGERPRINT>
10062212 137 18336825385559829163
10759866 29 17897457309511876188
10967382 1 18412548682291571786
11132069 177 18410018732180467827
11370993 70 18410569557056084199
11578080 2 16735503067342509174
12011746 2 18412547592124142406
12236239 1 18040155136873436768
12251169 10 18410008845387181634
12403259 226 18410006624652160988
12403259 415 18408880746209696412
12403260 363 18340481291412090749
12403814 3 17894914044785590877
12507557 5 18408881845467772304
12633257 1 18341888602346167976
12839892 36 18340758291450253690
13140716 1 18339643467883616216
13214271 11 18272369780793716703
13224815 77 18411987974316295335
13675066 3 18187087269080573787
14178342 30 18338527339117458393
14223421 5 18341052895787930134
14341114 176 18411985737129035682
14787075 74 18339640165090922602
14790565 3 18050014594947639924
15163728 17 14691189929019880809
15196674 1 18411420639180230811
15375358 24 18413110541697833299
15536298 74 18272376330249831326
15788980 27 17167859768361771669
16945 1 18267308633664624303
17349148 13 18260547844245275310
17492 89 18410012108956776131
1813 80 17168144512515476742
18186145 218 18411423903503023558
18522853 276 18412546492037592553
19050596 39 18410858775858764633
19784866 9 18412265021155473810
200 152 18202274819337965375
20715895 44 18116989984517715477
21033648 29 18262779827106925672
21267235 1 18410302427354843602
21421861 104 18042966467372004754
21637258 2 15647319828885568714
22182313 1 18189614934485510503
22854114 111 18409735070690792279
22854114 59 18343022189864506130
23402539 116 18272925046486162621
23557571 272 18059303161493107767
23559900 14 18343023255612643838
26918003 58 18409728456589012017
2748010 2 18410304609229794207
2838139 119 14835541671104639250
296302 2 16343984710473737934
335352 9 18411702045432157758
34934 24 18341610383102269379
350125 39 18410857681354741304
351380 180 18413386540454065762
3545911 37 18411703166439727155
42 15 18260548935156425576
5104073 3 18410294747868572393
59755656 215 18339930311854621398
633830 44 17988931080225984300
69090 78 18413386557386229218
7364860 26 18200601276388112774
9709674 26 18341058445033876271

> <PUBCHEM_SHAPE_MULTIPOLES>
420.43
9.43
2.1
1.06
1.16
0.42
0.43
-0.59
-2.56
-0.22
0.02
0.09
-0.22
0.11

> <PUBCHEM_SHAPE_SELFOVERLAP>
902.625

> <PUBCHEM_SHAPE_VOLUME>
230.1

> <PUBCHEM_COORDINATE_TYPE>
2
5
10

> <minimizedAffinity>
-9.44997

> <CNNscore>
0.3944605291

> <CNNaffinity>
7.2862834930

> <CNN_VS>
2.8741512299

> <CNNaffinity_variance>
0.5588712692

$$$$
6013


 22 25  0  0  0  0  0  0  0  0999 V2000
  109.8711   13.0932   23.8017 O   0  0  0  0  0  0  0  0  0  0  0  0
  100.0596   17.6876   24.3041 O   0  0  0  0  0  0  0  0  0  0  0  0
  106.6617   14.2746   22.5394 C   0  0  0  0  0  0  0  0  0  0  0  0
  107.4781   13.6775   23.7016 C   0  0  0  0  0  0  0  0  0  0  0  0
  105.1501   14.1709   22.7646 C   0  0  0  0  0  0  0  0  0  0  0  0
  104.7824   14.9442   24.0703 C   0  0  0  0  0  0  0  0  0  0  0  0
  103.2337   14.9358   24.3710 C   0  0  0  0  0  0  0  0  0  0  0  0
  107.1682   14.4892   24.9655 C   0  0  0  0  0  0  0  0  0  0  0  0
  105.6600   14.5004   25.2739 C   0  0  0  0  0  0  0  0  0  0  0  0
  108.8985   13.8778   23.1392 C   0  0  0  0  0  0  0  0  0  0  0  0
  107.2759   13.6247   21.3021 C   0  0  0  0  0  0  0  0  0  0  0  0
  104.3669   14.7417   21.5759 C   0  0  0  0  0  0  0  0  0  0  0  0
  108.7691   13.4928   21.6524 C   0  0  0  0  0  0  0  0  0  0  0  0
  102.4643   15.3458   23.1086 C   0  0  0  0  0  0  0  0  0  0  0  0
  102.8651   14.6676   21.8197 C   0  0  0  0  0  0  0  0  0  0  0  0
  107.2132   12.1747   23.9733 C   0  0  0  0  0  0  0  0  0  0  0  0
  102.9533   15.9502   25.5181 C   0  0  0  0  0  0  0  0  0  0  0  0
  102.7366   13.5385   24.8059 C   0  0  0  0  0  0  0  0  0  0  0  0
  101.4856   16.3221   25.6579 C   0  0  0  0  0  0  0  0  0  0  0  0
  101.4608   16.2392   23.0975 C   0  0  0  0  0  0  0  0  0  0  0  0
  100.9493   16.8406   24.3502 C   0  0  0  0  0  0  0  0  0  0  0  0
  109.7505   12.1630   23.5489 H   0  0  0  0  0  0  0  0  0  0  0  0
  1 10  1  0
  1 22  1  0
  2 21  2  0
  3  4  1  0
  3  5  1  0
  3 11  1  0
  4  8  1  0
  4 10  1  0
  4 16  1  0
  5  6  1  0
  5 12  1  0
  6  7  1  0
  6  9  1  0
  7 14  1  0
  7 17  1  0
  7 18  1  0
  8  9  1  0
 10 13  1  0
 11 13  1  0
 12 15  1  0
 14 15  1  0
 14 20  2  0
 17 19  1  0
 19 21  1  0
 20 21  1  0
M  END
> <PUBCHEM_COMPOUND_CID>
6013

> <PUBCHEM_CONFORMER_RMSD>
0.6

> <PUBCHEM_CONFORMER_DIVERSEORDER>
1

> <PUBCHEM_MMFF94_PARTIAL_CHARGES>
11
1 -0.68
10 0.28
14 -0.28
15 0.14
19 0.06
2 -0.57
20 -0.14
21 0.49
48 0.15
49 0.4
7 0.14

> <PUBCHEM_EFFECTIVE_ROTOR_COUNT>
1.8

> <PUBCHEM_PHARMACOPHORE_FEATURES>
7
1 1 acceptor
1 1 donor
1 2 acceptor
5 3 4 10 11 13 rings
6 3 4 5 6 8 9 rings
6 5 6 7 12 14 15 rings
6 7 14 17 19 20 21 rings

> <PUBCHEM_HEAVY_ATOM_COUNT>
21

> <PUBCHEM_ATOM_DEF_STEREO_COUNT>
6

> <PUBCHEM_ATOM_UDEF_STEREO_COUNT>
0

> <PUBCHEM_BOND_DEF_STEREO_COUNT>
0

> <PUBCHEM_BOND_UDEF_STEREO_COUNT>
0

> <PUBCHEM_ISOTOPIC_ATOM_COUNT>
0

> <PUBCHEM_COMPONENT_COUNT>
1

> <PUBCHEM_CACTVS_TAUTO_COUNT>
5

> <PUBCHEM_CONFORMER_ID>
0000177D00000001

> <PUBCHEM_MMFF94_ENERGY>
67.5416

> <PUBCHEM_FEATURE_SELFOVERLAP>
35.618

> <PUBCHEM_SHAPE_FINGERPRINT>
10062212 137 18336825385559829163
10759866 29 17897457309511876188
10967382 1 18412548682291571786
11132069 177 18410018732180467827
11370993 70 18410569557056084199
11578080 2 16735503067342509174
12011746 2 18412547592124142406
12236239 1 18040155136873436768
12251169 10 18410008845387181634
12403259 226 18410006624652160988
12403259 415 18408880746209696412
12403260 363 18340481291412090749
12403814 3 17894914044785590877
12507557 5 18408881845467772304
12633257 1 18341888602346167976
12839892 36 18340758291450253690
13140716 1 18339643467883616216
13214271 11 18272369780793716703
13224815 77 18411987974316295335
13675066 3 18187087269080573787
14178342 30 18338527339117458393
14223421 5 18341052895787930134
14341114 176 18411985737129035682
14787075 74 18339640165090922602
14790565 3 18050014594947639924
15163728 17 14691189929019880809
15196674 1 18411420639180230811
15375358 24 18413110541697833299
15536298 74 18272376330249831326
15788980 27 17167859768361771669
16945 1 18267308633664624303
17349148 13 18260547844245275310
17492 89 18410012108956776131
1813 80 17168144512515476742
18186145 218 18411423903503023558
18522853 276 18412546492037592553
19050596 39 18410858775858764633
19784866 9 18412265021155473810
200 152 18202274819337965375
20715895 44 18116989984517715477
21033648 29 18262779827106925672
21267235 1 18410302427354843602
21421861 104 18042966467372004754
21637258 2 15647319828885568714
22182313 1 18189614934485510503
22854114 111 18409735070690792279
22854114 59 18343022189864506130
23402539 116 18272925046486162621
23557571 272 18059303161493107767
23559900 14 18343023255612643838
26918003 58 18409728456589012017
2748010 2 18410304609229794207
2838139 119 14835541671104639250
296302 2 16343984710473737934
335352 9 18411702045432157758
34934 24 18341610383102269379
350125 39 18410857681354741304
351380 180 18413386540454065762
3545911 37 18411703166439727155
42 15 18260548935156425576
5104073 3 18410294747868572393
59755656 215 18339930311854621398
633830 44 17988931080225984300
69090 78 18413386557386229218
7364860 26 18200601276388112774
9709674 26 18341058445033876271

> <PUBCHEM_SHAPE_MULTIPOLES>
420.43
9.43
2.1
1.06
1.16
0.42
0.43
-0.59
-2.56
-0.22
0.02
0.09
-0.22
0.11

> <PUBCHEM_SHAPE_SELFOVERLAP>
902.625

> <PUBCHEM_SHAPE_VOLUME>
230.1

> <PUBCHEM_COORDINATE_TYPE>
2
5
10

> <minimizedAffinity>
-5.16950

> <CNNscore>
0.3491033614

> <CNNaffinity>
7.0969491005

> <CNN_VS>
2.4775688648

> <CNNaffinity_variance>
0.6375650764

$$$$
6013


 22 25  0  0  0  0  0  0  0  0999 V2000
  106.9650    9.5465   21.4749 O   0  0  0  0  0  0  0  0  0  0  0  0
  103.6258   19.3598   24.6653 O   0  0  0  0  0  0  0  0  0  0  0  0
  104.6104   12.2894   21.9467 C   0  0  0  0  0  0  0  0  0  0  0  0
  105.8309   11.5015   22.4598 C   0  0  0  0  0  0  0  0  0  0  0  0
  104.0137   13.2143   23.0120 C   0  0  0  0  0  0  0  0  0  0  0  0
  105.1056   14.2374   23.4579 C   0  0  0  0  0  0  0  0  0  0  0  0
  104.5769   15.2697   24.5273 C   0  0  0  0  0  0  0  0  0  0  0  0
  106.9270   12.5100   22.8261 C   0  0  0  0  0  0  0  0  0  0  0  0
  106.4298   13.5322   23.8642 C   0  0  0  0  0  0  0  0  0  0  0  0
  106.1272   10.6543   21.2075 C   0  0  0  0  0  0  0  0  0  0  0  0
  103.7297   11.2120   21.3189 C   0  0  0  0  0  0  0  0  0  0  0  0
  102.7811   13.9569   22.4813 C   0  0  0  0  0  0  0  0  0  0  0  0
  104.7343   10.2126   20.7174 C   0  0  0  0  0  0  0  0  0  0  0  0
  103.2497   15.8708   24.0468 C   0  0  0  0  0  0  0  0  0  0  0  0
  102.2122   14.9007   23.5328 C   0  0  0  0  0  0  0  0  0  0  0  0
  105.5442   10.5839   23.6756 C   0  0  0  0  0  0  0  0  0  0  0  0
  105.6420   16.3932   24.6902 C   0  0  0  0  0  0  0  0  0  0  0  0
  104.3356   14.6057   25.9019 C   0  0  0  0  0  0  0  0  0  0  0  0
  105.1165   17.6342   25.3942 C   0  0  0  0  0  0  0  0  0  0  0  0
  102.9632   17.1831   24.0816 C   0  0  0  0  0  0  0  0  0  0  0  0
  103.8959   18.1607   24.6874 C   0  0  0  0  0  0  0  0  0  0  0  0
  106.4606    8.8842   21.9757 H   0  0  0  0  0  0  0  0  0  0  0  0
  1 10  1  0
  1 22  1  0
  2 21  2  0
  3  4  1  0
  3  5  1  0
  3 11  1  0
  4  8  1  0
  4 10  1  0
  4 16  1  0
  5  6  1  0
  5 12  1  0
  6  7  1  0
  6  9  1  0
  7 14  1  0
  7 17  1  0
  7 18  1  0
  8  9  1  0
 10 13  1  0
 11 13  1  0
 12 15  1  0
 14 15  1  0
 14 20  2  0
 17 19  1  0
 19 21  1  0
 20 21  1  0
M  END
> <PUBCHEM_COMPOUND_CID>
6013

> <PUBCHEM_CONFORMER_RMSD>
0.6

> <PUBCHEM_CONFORMER_DIVERSEORDER>
1

> <PUBCHEM_MMFF94_PARTIAL_CHARGES>
11
1 -0.68
10 0.28
14 -0.28
15 0.14
19 0.06
2 -0.57
20 -0.14
21 0.49
48 0.15
49 0.4
7 0.14

> <PUBCHEM_EFFECTIVE_ROTOR_COUNT>
1.8

> <PUBCHEM_PHARMACOPHORE_FEATURES>
7
1 1 acceptor
1 1 donor
1 2 acceptor
5 3 4 10 11 13 rings
6 3 4 5 6 8 9 rings
6 5 6 7 12 14 15 rings
6 7 14 17 19 20 21 rings

> <PUBCHEM_HEAVY_ATOM_COUNT>
21

> <PUBCHEM_ATOM_DEF_STEREO_COUNT>
6

> <PUBCHEM_ATOM_UDEF_STEREO_COUNT>
0

> <PUBCHEM_BOND_DEF_STEREO_COUNT>
0

> <PUBCHEM_BOND_UDEF_STEREO_COUNT>
0

> <PUBCHEM_ISOTOPIC_ATOM_COUNT>
0

> <PUBCHEM_COMPONENT_COUNT>
1

> <PUBCHEM_CACTVS_TAUTO_COUNT>
5

> <PUBCHEM_CONFORMER_ID>
0000177D00000001

> <PUBCHEM_MMFF94_ENERGY>
67.5416

> <PUBCHEM_FEATURE_SELFOVERLAP>
35.618

> <PUBCHEM_SHAPE_FINGERPRINT>
10062212 137 18336825385559829163
10759866 29 17897457309511876188
10967382 1 18412548682291571786
11132069 177 18410018732180467827
11370993 70 18410569557056084199
11578080 2 16735503067342509174
12011746 2 18412547592124142406
12236239 1 18040155136873436768
12251169 10 18410008845387181634
12403259 226 18410006624652160988
12403259 415 18408880746209696412
12403260 363 18340481291412090749
12403814 3 17894914044785590877
12507557 5 18408881845467772304
12633257 1 18341888602346167976
12839892 36 18340758291450253690
13140716 1 18339643467883616216
13214271 11 18272369780793716703
13224815 77 18411987974316295335
13675066 3 18187087269080573787
14178342 30 18338527339117458393
14223421 5 18341052895787930134
14341114 176 18411985737129035682
14787075 74 18339640165090922602
14790565 3 18050014594947639924
15163728 17 14691189929019880809
15196674 1 18411420639180230811
15375358 24 18413110541697833299
15536298 74 18272376330249831326
15788980 27 17167859768361771669
16945 1 18267308633664624303
17349148 13 18260547844245275310
17492 89 18410012108956776131
1813 80 17168144512515476742
18186145 218 18411423903503023558
18522853 276 18412546492037592553
19050596 39 18410858775858764633
19784866 9 18412265021155473810
200 152 18202274819337965375
20715895 44 18116989984517715477
21033648 29 18262779827106925672
21267235 1 18410302427354843602
21421861 104 18042966467372004754
21637258 2 15647319828885568714
22182313 1 18189614934485510503
22854114 111 18409735070690792279
22854114 59 18343022189864506130
23402539 116 18272925046486162621
23557571 272 18059303161493107767
23559900 14 18343023255612643838
26918003 58 18409728456589012017
2748010 2 18410304609229794207
2838139 119 14835541671104639250
296302 2 16343984710473737934
335352 9 18411702045432157758
34934 24 18341610383102269379
350125 39 18410857681354741304
351380 180 18413386540454065762
3545911 37 18411703166439727155
42 15 18260548935156425576
5104073 3 18410294747868572393
59755656 215 18339930311854621398
633830 44 17988931080225984300
69090 78 18413386557386229218
7364860 26 18200601276388112774
9709674 26 18341058445033876271

> <PUBCHEM_SHAPE_MULTIPOLES>
420.43
9.43
2.1
1.06
1.16
0.42
0.43
-0.59
-2.56
-0.22
0.02
0.09
-0.22
0.11

> <PUBCHEM_SHAPE_SELFOVERLAP>
902.625

> <PUBCHEM_SHAPE_VOLUME>
230.1

> <PUBCHEM_COORDINATE_TYPE>
2
5
10

> <minimizedAffinity>
3.65163

> <CNNscore>
0.1836242229

> <CNNaffinity>
6.4246945381

> <CNN_VS>
1.1797295809

> <CNNaffinity_variance>
0.3988297284

$$$$
