
     RDKit          3D

 28 31  0  0  0  0  0  0  0  0999 V2000
   89.6140   93.7220   14.0880 C   0  0  0  0  0  0  0  0  0  0  0  0
   90.5640   92.8240   13.6040 C   0  0  0  0  0  0  0  0  0  0  0  0
   91.8600   92.8570   14.1130 C   0  0  0  0  0  0  0  0  0  0  0  0
   92.2060   93.8030   15.1170 C   0  0  0  0  0  0  0  0  0  0  0  0
   91.2690   94.6810   15.5840 C   0  0  0  0  0  0  0  0  0  0  0  0
   89.9500   94.6480   15.0730 C   0  0  0  0  0  0  0  0  0  0  0  0
   91.8850   95.4920   16.5770 C   0  0  0  0  0  0  0  0  0  0  0  0
   93.2280   95.1310   16.7040 C   0  0  1  0  0  0  0  0  0  0  0  0
   93.4170   94.0680   15.8120 C   0  0  0  0  0  0  0  0  0  0  0  0
   94.2810   96.2360   16.8660 C   0  0  0  0  0  0  0  0  0  0  0  0
   95.5780   95.8170   17.7590 C   0  0  1  0  0  0  0  0  0  0  0  0
   96.3680   94.8220   17.0700 C   0  0  0  0  0  0  0  0  0  0  0  0
   97.7170   94.5500   17.7490 C   0  0  0  0  0  0  0  0  0  0  0  0
   98.4690   95.7700   18.0270 N   0  0  0  0  0  0  0  0  0  0  0  0
   97.6920   96.8190   18.6510 C   0  0  0  0  0  0  0  0  0  0  0  0
   96.3440   97.0540   17.9740 C   0  0  0  0  0  0  0  0  0  0  0  0
   99.5930   95.5940   18.4590 C   0  0  0  0  0  0  0  0  0  0  0  0
   99.7670   95.3020   19.9690 C   0  0  1  0  0  0  0  0  0  0  0  0
   99.7380   93.9910   20.4350 C   0  0  0  0  0  0  0  0  0  0  0  0
   99.9010   93.7140   21.7870 C   0  0  0  0  0  0  0  0  0  0  0  0
  100.1190   94.7450   22.6920 C   0  0  0  0  0  0  0  0  0  0  0  0
  100.1670   96.0540   22.2360 C   0  0  0  0  0  0  0  0  0  0  0  0
  100.0080   96.3270   20.8830 C   0  0  0  0  0  0  0  0  0  0  0  0
   91.2440   96.5180   17.2810 O   0  0  0  0  0  0  0  0  0  0  0  0
   88.3180   93.6660   13.5660 O   0  0  0  0  0  0  0  0  0  0  0  0
   87.6470   94.8890   13.5700 C   0  0  0  0  0  0  0  0  0  0  0  0
   90.1750   91.9050   12.6160 O   0  0  0  0  0  0  0  0  0  0  0  0
   91.2170   91.2740   11.9300 C   0  0  0  0  0  0  0  0  0  0  0  0
  2  1  1  0
  3  2  1  0
  4  3  1  0
  5  4  1  0
  6  5  1  0
  6  1  1  0
  7  5  1  0
  8  7  1  0
  9  4  1  0
  9  8  1  0
  8 10  1  6
 11 10  1  6
 12 11  1  0
 13 12  1  0
 14 13  1  0
 15 14  1  0
 16 15  1  0
 16 11  1  0
 17 14  1  0
 18 17  1  6
 19 18  1  0
 20 19  1  0
 21 20  1  0
 22 21  1  0
 23 18  1  0
 23 22  1  0
 24  7  1  0
 25  1  1  0
 26 25  1  0
 27  2  1  0
 28 27  1  0
M  END
$$$$
