
 OpenBabel01132611273D

 57 60  0  0  1  0  0  0  0  0999 V2000
    9.0923    3.2970   -1.9417 C   0  0  0  0  0  0  0  0  0  0  0  0
    9.5315    2.1606   -1.1954 O   0  0  0  0  0  0  0  0  0  0  0  0
    9.3279    2.2728    0.1615 C   0  0  0  0  0  0  0  0  0  0  0  0
    8.1763    2.8876    0.6821 C   0  0  0  0  0  0  0  0  0  0  0  0
    8.0705    3.0501    2.0494 C   0  0  0  0  0  0  0  0  0  0  0  0
    9.0843    2.5902    2.8715 C   0  0  0  0  0  0  0  0  0  0  0  0
   10.1912    1.9043    2.4060 C   0  0  0  0  0  0  0  0  0  0  0  0
   10.3185    1.7340    1.0256 C   0  0  0  0  0  0  0  0  0  0  0  0
   11.3794    1.0953    0.4300 O   0  0  0  0  0  0  0  0  0  0  0  0
   12.3524    0.5189    1.2961 C   0  0  0  0  0  0  0  0  0  0  0  0
    8.7848    2.9850    4.2368 C   0  0  0  0  0  0  0  0  0  0  0  0
    9.5624    2.8200    5.1635 O   0  0  0  0  0  0  0  0  0  0  0  0
    7.4121    3.6278    4.2914 C   0  0  1  0  0  0  0  0  0  0  0  0
    6.9858    3.7466    2.8038 C   0  0  0  0  0  0  0  0  0  0  0  0
    6.4171    2.7815    5.0934 C   0  0  0  0  0  0  0  0  0  0  0  0
    6.7680    2.5903    6.5884 C   0  0  0  0  0  0  0  0  0  0  0  0
    5.7561    1.6732    7.2846 C   0  0  0  0  0  0  0  0  0  0  0  0
    4.3817    2.3298    7.4025 C   0  0  0  0  0  0  0  0  0  0  0  0
    4.4464    3.6091    8.1268 N   0  0  0  0  0  0  0  0  0  0  0  0
    5.4423    4.5332    7.5595 C   0  0  0  0  0  0  0  0  0  0  0  0
    6.8256    3.8986    7.3850 C   0  0  0  0  0  0  0  0  0  0  0  0
    3.1226    4.2667    8.1653 C   0  0  0  0  0  0  0  0  0  0  0  0
    2.0526    3.4420    8.8508 C   0  0  0  0  0  0  0  0  0  0  0  0
    2.2162    3.0337   10.1821 C   0  0  0  0  0  0  0  0  0  0  0  0
    1.2582    2.2251   10.7955 C   0  0  0  0  0  0  0  0  0  0  0  0
    0.1255    1.8238   10.0898 C   0  0  0  0  0  0  0  0  0  0  0  0
   -0.0576    2.2387    8.7713 C   0  0  0  0  0  0  0  0  0  0  0  0
    0.9000    3.0463    8.1559 C   0  0  0  0  0  0  0  0  0  0  0  0
    9.5212    3.2353   -2.9469 H   0  0  0  0  0  0  0  0  0  0  0  0
    9.4364    4.2354   -1.4886 H   0  0  0  0  0  0  0  0  0  0  0  0
    8.0034    3.2964   -2.0502 H   0  0  0  0  0  0  0  0  0  0  0  0
    7.3825    3.2496    0.0392 H   0  0  0  0  0  0  0  0  0  0  0  0
   10.9224    1.5518    3.1230 H   0  0  0  0  0  0  0  0  0  0  0  0
   13.1183    0.0392    0.6786 H   0  0  0  0  0  0  0  0  0  0  0  0
   11.9079   -0.2543    1.9319 H   0  0  0  0  0  0  0  0  0  0  0  0
   12.8481    1.2865    1.9002 H   0  0  0  0  0  0  0  0  0  0  0  0
    7.5033    4.6380    4.7027 H   0  0  0  0  0  0  0  0  0  0  0  0
    6.9454    4.7989    2.5025 H   0  0  0  0  0  0  0  0  0  0  0  0
    6.0117    3.2859    2.6052 H   0  0  0  0  0  0  0  0  0  0  0  0
    5.4305    3.2489    4.9923 H   0  0  0  0  0  0  0  0  0  0  0  0
    6.3309    1.7889    4.6305 H   0  0  0  0  0  0  0  0  0  0  0  0
    7.7439    2.0972    6.6556 H   0  0  0  0  0  0  0  0  0  0  0  0
    6.1243    1.4339    8.2920 H   0  0  0  0  0  0  0  0  0  0  0  0
    5.6713    0.7188    6.7523 H   0  0  0  0  0  0  0  0  0  0  0  0
    3.7390    1.6220    7.9380 H   0  0  0  0  0  0  0  0  0  0  0  0
    3.9411    2.4640    6.4072 H   0  0  0  0  0  0  0  0  0  0  0  0
    5.5549    5.3923    8.2327 H   0  0  0  0  0  0  0  0  0  0  0  0
    5.1029    4.9288    6.5942 H   0  0  0  0  0  0  0  0  0  0  0  0
    7.2493    3.6885    8.3763 H   0  0  0  0  0  0  0  0  0  0  0  0
    7.5078    4.6156    6.9162 H   0  0  0  0  0  0  0  0  0  0  0  0
    2.7991    4.5202    7.1463 H   0  0  0  0  0  0  0  0  0  0  0  0
    3.1956    5.2160    8.7117 H   0  0  0  0  0  0  0  0  0  0  0  0
    3.1094    3.3230   10.7314 H   0  0  0  0  0  0  0  0  0  0  0  0
    1.4071    1.8967   11.8207 H   0  0  0  0  0  0  0  0  0  0  0  0
   -0.6111    1.1836   10.5661 H   0  0  0  0  0  0  0  0  0  0  0  0
   -0.9410    1.9265    8.2232 H   0  0  0  0  0  0  0  0  0  0  0  0
    0.7484    3.3510    7.1226 H   0  0  0  0  0  0  0  0  0  0  0  0
  1  2  1  0  0  0  0
  1 29  1  0  0  0  0
  1 30  1  0  0  0  0
  1 31  1  0  0  0  0
  2  3  1  0  0  0  0
  3  4  1  0  0  0  0
  3  8  2  0  0  0  0
  4  5  2  0  0  0  0
  4 32  1  0  0  0  0
  5  6  1  0  0  0  0
  5 14  1  0  0  0  0
  6  7  2  0  0  0  0
  6 11  1  0  0  0  0
  7  8  1  0  0  0  0
  7 33  1  0  0  0  0
  8  9  1  0  0  0  0
  9 10  1  0  0  0  0
 10 34  1  0  0  0  0
 10 35  1  0  0  0  0
 10 36  1  0  0  0  0
 11 12  2  0  0  0  0
 11 13  1  0  0  0  0
 13 14  1  0  0  0  0
 13 15  1  0  0  0  0
 13 37  1  1  0  0  0
 14 38  1  0  0  0  0
 14 39  1  0  0  0  0
 15 16  1  0  0  0  0
 15 40  1  0  0  0  0
 15 41  1  0  0  0  0
 16 17  1  0  0  0  0
 16 21  1  0  0  0  0
 16 42  1  0  0  0  0
 17 18  1  0  0  0  0
 17 43  1  0  0  0  0
 17 44  1  0  0  0  0
 18 19  1  0  0  0  0
 18 45  1  0  0  0  0
 18 46  1  0  0  0  0
 19 20  1  0  0  0  0
 19 22  1  0  0  0  0
 20 21  1  0  0  0  0
 20 47  1  0  0  0  0
 20 48  1  0  0  0  0
 21 49  1  0  0  0  0
 21 50  1  0  0  0  0
 22 23  1  0  0  0  0
 22 51  1  0  0  0  0
 22 52  1  0  0  0  0
 23 24  1  0  0  0  0
 23 28  2  0  0  0  0
 24 25  2  0  0  0  0
 24 53  1  0  0  0  0
 25 26  1  0  0  0  0
 25 54  1  0  0  0  0
 26 27  2  0  0  0  0
 26 55  1  0  0  0  0
 27 28  1  0  0  0  0
 27 56  1  0  0  0  0
 28 57  1  0  0  0  0
M  END
$$$$
