11381
 OpenBabel06012612503D

 23 24  0  0  0  0  0  0  0  0999 V2000
    3.4474   -1.8231    0.0009 O   0  0  0  0  0  0  0  0  0  0  0  0
    0.4385    0.2338    0.0000 C   0  0  0  0  0  0  0  0  0  0  0  0
   -1.0104    0.0666    0.0001 C   0  0  0  0  0  0  0  0  0  0  0  0
    1.2833   -0.8818    0.0004 C   0  0  0  0  0  0  0  0  0  0  0  0
    1.0033    1.5182   -0.0009 C   0  0  0  0  0  0  0  0  0  0  0  0
   -1.7154   -0.0133    1.2093 C   0  0  0  0  0  0  0  0  0  0  0  0
   -1.7149   -0.0152   -1.2083 C   0  0  0  0  0  0  0  0  0  0  0  0
    2.6627   -0.7080    0.0003 C   0  0  0  0  0  0  0  0  0  0  0  0
    2.3880    1.6829   -0.0010 C   0  0  0  0  0  0  0  0  0  0  0  0
    3.2217    0.5659   -0.0005 C   0  0  0  0  0  0  0  0  0  0  0  0
   -3.1008   -0.1721    1.2085 C   0  0  0  0  0  0  0  0  0  0  0  0
   -3.1003   -0.1740   -1.2080 C   0  0  0  0  0  0  0  0  0  0  0  0
   -3.7915   -0.2520    0.0007 C   0  0  0  0  0  0  0  0  0  0  0  0
    3.0534   -2.6733    0.0015 H   0  0  0  0  0  0  0  0  0  0  0  0
    0.8827   -1.8329    0.0007 H   0  0  0  0  0  0  0  0  0  0  0  0
    0.3891    2.3475   -0.0014 H   0  0  0  0  0  0  0  0  0  0  0  0
   -1.2062    0.0457    2.1049 H   0  0  0  0  0  0  0  0  0  0  0  0
   -1.2054    0.0425   -2.1039 H   0  0  0  0  0  0  0  0  0  0  0  0
    2.7953    2.6311   -0.0015 H   0  0  0  0  0  0  0  0  0  0  0  0
    4.2470    0.6831   -0.0007 H   0  0  0  0  0  0  0  0  0  0  0  0
   -3.6143   -0.2304    2.1018 H   0  0  0  0  0  0  0  0  0  0  0  0
   -3.6135   -0.2338   -2.1014 H   0  0  0  0  0  0  0  0  0  0  0  0
   -4.8168   -0.3691    0.0007 H   0  0  0  0  0  0  0  0  0  0  0  0
  1  8  1  0  0  0  0
  1 14  1  0  0  0  0
  2  3  1  0  0  0  0
  2  4  2  0  0  0  0
  2  5  1  0  0  0  0
  3  6  2  0  0  0  0
  3  7  1  0  0  0  0
  4  8  1  0  0  0  0
  4 15  1  0  0  0  0
  5  9  2  0  0  0  0
  5 16  1  0  0  0  0
  6 11  1  0  0  0  0
  6 17  1  0  0  0  0
  7 12  2  0  0  0  0
  7 18  1  0  0  0  0
  8 10  2  0  0  0  0
  9 10  1  0  0  0  0
  9 19  1  0  0  0  0
 10 20  1  0  0  0  0
 11 13  2  0  0  0  0
 11 21  1  0  0  0  0
 12 13  1  0  0  0  0
 12 22  1  0  0  0  0
 13 23  1  0  0  0  0
M  END
>  <PUBCHEM_COMPOUND_CID>
11381

>  <PUBCHEM_CONFORMER_RMSD>
0.4

>  <PUBCHEM_CONFORMER_DIVERSEORDER>
1
2

>  <PUBCHEM_MMFF94_PARTIAL_CHARGES>
21
1 -0.53
10 -0.15
11 -0.15
12 -0.15
13 -0.15
14 0.15
15 0.15
16 0.15
17 0.15
18 0.15
19 0.15
20 0.15
21 0.15
22 0.15
23 0.45
4 -0.15
5 -0.15
6 -0.15
7 -0.15
8 0.08
9 -0.15

>  <PUBCHEM_EFFECTIVE_ROTOR_COUNT>
1

>  <PUBCHEM_PHARMACOPHORE_FEATURES>
3
1 1 donor
6 2 4 5 8 9 10 rings
6 3 6 7 11 12 13 rings

>  <PUBCHEM_HEAVY_ATOM_COUNT>
13

>  <PUBCHEM_ATOM_DEF_STEREO_COUNT>
0

>  <PUBCHEM_ATOM_UDEF_STEREO_COUNT>
0

>  <PUBCHEM_BOND_DEF_STEREO_COUNT>
0

>  <PUBCHEM_BOND_UDEF_STEREO_COUNT>
0

>  <PUBCHEM_ISOTOPIC_ATOM_COUNT>
0

>  <PUBCHEM_COMPONENT_COUNT>
1

>  <PUBCHEM_CACTVS_TAUTO_COUNT>
3

>  <PUBCHEM_CONFORMER_ID>
00002C7500000001

>  <PUBCHEM_MMFF94_ENERGY>
40.3132

>  <PUBCHEM_FEATURE_SELFOVERLAP>
15.223

>  <PUBCHEM_SHAPE_FINGERPRINT>
10219947 1 18341895186240687182
10465860 71 15719402706573392390
10608611 8 17822284717032629733
11031198 65 18261960759731826644
11471102 20 18408882945037344332
11578080 2 17415242153818588785
12236239 1 17775568658280064961
12932764 1 17847061103283560305
13296908 3 17894631461032136395
13538477 17 17418088871068781903
13581323 91 15140951889858123729
14144814 61 17775569753549440493
15219456 202 17967532401926553141
15669948 3 16486969660973845285
15775835 57 17775291602803817465
16945 1 18410574032797264868
17844478 74 17894916234723253917
1813 80 17986408706589963670
18175812 5 17749391494183666735
18186145 218 18411984667223210415
19049666 15 17677600986860681909
19422 9 17988925591278768383
200 152 18272362079811755991
20201158 50 18113336405492339786
20279233 1 17748823042176575267
20281407 28 17313111847192154667
204376 136 18122621927861881016
20645464 45 17458619064513067825
20645477 70 18409440362930788671
20715346 28 17749391511263237529
20871998 22 18056486050047837438
21639500 275 18268140036322850252
21730867 7 18260830431644850388
2255824 54 18343023324215744780
23402539 116 16226313906706839287
23557571 272 16733271247595046941
23559900 14 16877936114787146570
3248919 1 17275107236420681399
474 4 17699836616921432136
57812782 119 17894625972048042809
581208 293 18411132580387946424
6049 1 17748548142958572077
77492 1 17703793638814871493

>  <PUBCHEM_SHAPE_MULTIPOLES>
261.66
6.45
1.33
1.07
0.87
0.05
0
-1.06
0
-1.66
0
1.09
-0.02
0

>  <PUBCHEM_SHAPE_SELFOVERLAP>
570.219

>  <PUBCHEM_SHAPE_VOLUME>
143.3

>  <PUBCHEM_COORDINATE_TYPE>
2
5
10

>  <Energy>
28.292

$$$$
