16308
 OpenBabel06012612503D

 22 23  0  0  0  0  0  0  0  0999 V2000
    5.2904    0.0004    0.0008 Cl  0  0  0  0  0  0  0  0  0  0  0  0
   -5.2902   -0.0007   -0.0015 Cl  0  0  0  0  0  0  0  0  0  0  0  0
    0.7416    0.0005   -0.0002 C   0  0  0  0  0  0  0  0  0  0  0  0
   -0.7423   -0.0007   -0.0001 C   0  0  0  0  0  0  0  0  0  0  0  0
    1.4769    1.1518    0.3433 C   0  0  0  0  0  0  0  0  0  0  0  0
   -1.4771    1.1510   -0.3447 C   0  0  0  0  0  0  0  0  0  0  0  0
    1.4773   -1.1507   -0.3441 C   0  0  0  0  0  0  0  0  0  0  0  0
   -1.4776   -1.1512    0.3428 C   0  0  0  0  0  0  0  0  0  0  0  0
    2.8769    1.1572    0.3365 C   0  0  0  0  0  0  0  0  0  0  0  0
   -2.8771    1.1553   -0.3380 C   0  0  0  0  0  0  0  0  0  0  0  0
    2.8773   -1.1555   -0.3370 C   0  0  0  0  0  0  0  0  0  0  0  0
   -2.8772   -1.1573    0.3359 C   0  0  0  0  0  0  0  0  0  0  0  0
    3.5706    0.0005   -0.0000 C   0  0  0  0  0  0  0  0  0  0  0  0
   -3.5719   -0.0015   -0.0012 C   0  0  0  0  0  0  0  0  0  0  0  0
    0.9714    2.0122    0.6064 H   0  0  0  0  0  0  0  0  0  0  0  0
   -0.9716    2.0113   -0.6082 H   0  0  0  0  0  0  0  0  0  0  0  0
    0.9721   -2.0111   -0.6077 H   0  0  0  0  0  0  0  0  0  0  0  0
   -0.9720   -2.0116    0.6059 H   0  0  0  0  0  0  0  0  0  0  0  0
    3.3923    2.0173    0.5807 H   0  0  0  0  0  0  0  0  0  0  0  0
   -3.3926    2.0152   -0.5826 H   0  0  0  0  0  0  0  0  0  0  0  0
    3.3929   -2.0154   -0.5814 H   0  0  0  0  0  0  0  0  0  0  0  0
   -3.3920   -2.0176    0.5805 H   0  0  0  0  0  0  0  0  0  0  0  0
  1 13  1  0  0  0  0
  2 14  1  0  0  0  0
  3  4  1  0  0  0  0
  3  5  2  0  0  0  0
  3  7  1  0  0  0  0
  4  6  2  0  0  0  0
  4  8  1  0  0  0  0
  5  9  1  0  0  0  0
  5 15  1  0  0  0  0
  6 10  1  0  0  0  0
  6 16  1  0  0  0  0
  7 11  2  0  0  0  0
  7 17  1  0  0  0  0
  8 12  2  0  0  0  0
  8 18  1  0  0  0  0
  9 13  2  0  0  0  0
  9 19  1  0  0  0  0
 10 14  2  0  0  0  0
 10 20  1  0  0  0  0
 11 13  1  0  0  0  0
 11 21  1  0  0  0  0
 12 14  1  0  0  0  0
 12 22  1  0  0  0  0
M  END
>  <PUBCHEM_COMPOUND_CID>
16308

>  <PUBCHEM_CONFORMER_RMSD>
0.4

>  <PUBCHEM_CONFORMER_DIVERSEORDER>
1
2

>  <PUBCHEM_MMFF94_PARTIAL_CHARGES>
20
1 -0.18
10 -0.15
11 -0.15
12 -0.15
13 0.18
14 0.18
15 0.15
16 0.15
17 0.15
18 0.15
19 0.15
2 -0.18
20 0.15
21 0.15
22 0.15
5 -0.15
6 -0.15
7 -0.15
8 -0.15
9 -0.15

>  <PUBCHEM_EFFECTIVE_ROTOR_COUNT>
1

>  <PUBCHEM_PHARMACOPHORE_FEATURES>
2
6 3 5 7 9 11 13 rings
6 4 6 8 10 12 14 rings

>  <PUBCHEM_HEAVY_ATOM_COUNT>
14

>  <PUBCHEM_ATOM_DEF_STEREO_COUNT>
0

>  <PUBCHEM_ATOM_UDEF_STEREO_COUNT>
0

>  <PUBCHEM_BOND_DEF_STEREO_COUNT>
0

>  <PUBCHEM_BOND_UDEF_STEREO_COUNT>
0

>  <PUBCHEM_ISOTOPIC_ATOM_COUNT>
0

>  <PUBCHEM_COMPONENT_COUNT>
1

>  <PUBCHEM_CACTVS_TAUTO_COUNT>
1

>  <PUBCHEM_CONFORMER_ID>
00003FB400000001

>  <PUBCHEM_MMFF94_ENERGY>
41.5975

>  <PUBCHEM_FEATURE_SELFOVERLAP>
10.149

>  <PUBCHEM_SHAPE_FINGERPRINT>
10608611 8 18410851062082111905
11401426 45 18272929440548981586
11471102 20 18343582945231979380
12032990 46 18410578383197988225
12251169 10 18410855473013063727
13380535 76 18410856559640257286
14144814 61 18410855430063390915
14252887 29 17632304449808322966
14325111 11 18410573980872451021
15219456 202 18412262830722022565
17802600 8 18410570686616866624
18175812 5 18410856606884436543
18186145 218 18339362950848259613
18522853 276 18343582932220698032
200 152 17775281664560451351
20201158 50 18413109450396487914
20279233 1 18410862057198188290
20510252 161 18340486656380573401
20528008 55 18411134753667687467
20645477 56 18260828168503384989
20645477 70 18201440212397662878
21267235 1 18410865360027960962
23402539 116 18410284826995245455
23402655 69 18271519802275900221
23557571 272 17967813808263123316
23559900 14 18409445920924093280
26918003 58 18411701002024182075
3545911 37 18410856563934763374
474 4 15792875492852278620
5104073 3 18338517434790577090
69090 78 18342172280699175423
8809292 202 18261678167831575386
9709674 26 18411425011552494319

>  <PUBCHEM_SHAPE_MULTIPOLES>
291.85
9.46
1.39
0.68
0
0
0
0
0
0
0
0
0
0.44

>  <PUBCHEM_SHAPE_SELFOVERLAP>
615.763

>  <PUBCHEM_SHAPE_VOLUME>
156.4

>  <PUBCHEM_COORDINATE_TYPE>
2
5
10

>  <Energy>
36.6642

$$$$
