7453
 OpenBabel06012612503D

 25 25  0  0  1  0  0  0  0  0999 V2000
   -3.6909    0.2507   -0.2357 O   0  0  0  0  0  0  0  0  0  0  0  0
    1.9152   -0.3921    0.4335 C   0  0  1  0  0  0  0  0  0  0  0  0
    2.7479    0.4741   -0.5336 C   0  0  0  0  0  0  0  0  0  0  0  0
    0.4177   -0.2308    0.2295 C   0  0  0  0  0  0  0  0  0  0  0  0
    2.3148   -1.8676    0.3091 C   0  0  0  0  0  0  0  0  0  0  0  0
    2.5261    1.9695   -0.3392 C   0  0  0  0  0  0  0  0  0  0  0  0
   -0.3822    0.2496    1.2780 C   0  0  0  0  0  0  0  0  0  0  0  0
   -0.1957   -0.5516   -0.9922 C   0  0  0  0  0  0  0  0  0  0  0  0
   -1.7591    0.4067    1.1071 C   0  0  0  0  0  0  0  0  0  0  0  0
   -1.5735   -0.3952   -1.1633 C   0  0  0  0  0  0  0  0  0  0  0  0
   -2.3435    0.0834   -0.1103 C   0  0  0  0  0  0  0  0  0  0  0  0
   -4.1920    0.5748    0.4866 H   0  0  0  0  0  0  0  0  0  0  0  0
    2.1323   -0.0465    1.4226 H   0  0  0  0  0  0  0  0  0  0  0  0
    2.4796    0.2177   -1.5372 H   0  0  0  0  0  0  0  0  0  0  0  0
    3.7797    0.2758   -0.3315 H   0  0  0  0  0  0  0  0  0  0  0  0
    2.0978   -2.2137   -0.6799 H   0  0  0  0  0  0  0  0  0  0  0  0
    1.7629   -2.4476    1.0190 H   0  0  0  0  0  0  0  0  0  0  0  0
    3.3623   -1.9709    0.5014 H   0  0  0  0  0  0  0  0  0  0  0  0
    1.5008    2.2062   -0.5335 H   0  0  0  0  0  0  0  0  0  0  0  0
    3.1521    2.5137   -1.0151 H   0  0  0  0  0  0  0  0  0  0  0  0
    2.7696    2.2382    0.6675 H   0  0  0  0  0  0  0  0  0  0  0  0
    0.0512    0.4890    2.1835 H   0  0  0  0  0  0  0  0  0  0  0  0
    0.3779   -0.9071   -1.7730 H   0  0  0  0  0  0  0  0  0  0  0  0
   -2.3401    0.7618    1.8826 H   0  0  0  0  0  0  0  0  0  0  0  0
   -2.0158   -0.6333   -2.0648 H   0  0  0  0  0  0  0  0  0  0  0  0
  1 11  1  0  0  0  0
  1 12  1  0  0  0  0
  2  3  1  0  0  0  0
  2  4  1  0  0  0  0
  2  5  1  0  0  0  0
  2 13  1  1  0  0  0
  3  6  1  0  0  0  0
  3 14  1  0  0  0  0
  3 15  1  0  0  0  0
  4  7  2  0  0  0  0
  4  8  1  0  0  0  0
  5 16  1  0  0  0  0
  5 17  1  0  0  0  0
  5 18  1  0  0  0  0
  6 19  1  0  0  0  0
  6 20  1  0  0  0  0
  6 21  1  0  0  0  0
  7  9  1  0  0  0  0
  7 22  1  0  0  0  0
  8 10  2  0  0  0  0
  8 23  1  0  0  0  0
  9 11  2  0  0  0  0
  9 24  1  0  0  0  0
 10 11  1  0  0  0  0
 10 25  1  0  0  0  0
M  END
>  <PUBCHEM_COMPOUND_CID>
7453

>  <PUBCHEM_CONFORMER_RMSD>
0.4

>  <PUBCHEM_CONFORMER_DIVERSEORDER>
1
5
8
4
7
6
3
2

>  <PUBCHEM_MMFF94_PARTIAL_CHARGES>
13
1 -0.53
10 -0.15
11 0.08
2 0.14
21 0.15
22 0.15
23 0.15
24 0.15
25 0.45
4 -0.14
7 -0.15
8 -0.15
9 -0.15

>  <PUBCHEM_EFFECTIVE_ROTOR_COUNT>
2

>  <PUBCHEM_PHARMACOPHORE_FEATURES>
4
1 1 donor
1 5 hydrophobe
1 6 hydrophobe
6 4 7 8 9 10 11 rings

>  <PUBCHEM_HEAVY_ATOM_COUNT>
11

>  <PUBCHEM_ATOM_DEF_STEREO_COUNT>
0

>  <PUBCHEM_ATOM_UDEF_STEREO_COUNT>
1

>  <PUBCHEM_BOND_DEF_STEREO_COUNT>
0

>  <PUBCHEM_BOND_UDEF_STEREO_COUNT>
0

>  <PUBCHEM_ISOTOPIC_ATOM_COUNT>
0

>  <PUBCHEM_COMPONENT_COUNT>
1

>  <PUBCHEM_CACTVS_TAUTO_COUNT>
2

>  <PUBCHEM_CONFORMER_ID>
00001D1D00000001

>  <PUBCHEM_MMFF94_ENERGY>
23.0626

>  <PUBCHEM_FEATURE_SELFOVERLAP>
20.297

>  <PUBCHEM_SHAPE_FINGERPRINT>
10857977 72 15430040980285488269
11031198 65 18114472227153398916
12326174 3 18040989610411920986
12932764 1 17095518466011729019
13538477 17 17917421059984439062
15310529 11 18411416207048222873
15775835 57 18341617082935032596
16945 1 18410580569410201602
18186145 218 17240758429008232701
19026448 4 18040153998775564667
20645464 45 16805601494815262192
20645476 183 18202281433049719743
20653085 51 18189051997744271997
20715346 28 17095821969875525651
21040471 1 16557915493899853003
23552423 10 17988069110195984374
2748010 2 14636309072681229403
3248919 1 18409721859461216571
369184 2 18040716969739618355
5084963 1 18130222640636690562
8030462 33 17989208139886383810

>  <PUBCHEM_SHAPE_MULTIPOLES>
220.51
4.64
1.4
1.17
1.25
0.07
-0.08
0.78
0.54
-1.6
0.04
0.35
0
-0.52

>  <PUBCHEM_SHAPE_SELFOVERLAP>
447.33

>  <PUBCHEM_SHAPE_VOLUME>
129.9

>  <PUBCHEM_COORDINATE_TYPE>
2
5
10

>  <Energy>
12.0864

$$$$
