5282360
 OpenBabel05142611063D

 45 48  0  0  1  0  0  0  0  0999 V2000
    5.3187    0.9827    0.3374 O   0  0  0  0  0  0  0  0  0  0  0  0
   -4.2321   -1.8250    0.4388 O   0  0  0  0  0  0  0  0  0  0  0  0
   -5.6401    0.4861    0.3689 O   0  0  0  0  0  0  0  0  0  0  0  0
    2.8990    0.5377    0.1744 C   0  0  1  0  0  0  0  0  0  0  0  0
    2.1636   -0.6866   -0.4060 C   0  0  2  0  0  0  0  0  0  0  0  0
    0.6874   -0.7154   -0.0090 C   0  0  1  0  0  0  0  0  0  0  0  0
   -0.0094    0.5557   -0.5813 C   0  0  2  0  0  0  0  0  0  0  0  0
    4.3219    0.2383   -0.3354 C   0  0  2  0  0  0  0  0  0  0  0  0
    2.2561    1.8008   -0.4107 C   0  0  0  0  0  0  0  0  0  0  0  0
    3.0640   -1.8573   -0.0214 C   0  0  0  0  0  0  0  0  0  0  0  0
    0.7381    1.8470   -0.1466 C   0  0  0  0  0  0  0  0  0  0  0  0
    4.4875   -1.2772   -0.1087 C   0  0  0  0  0  0  0  0  0  0  0  0
   -0.0360   -1.9552   -0.5346 C   0  0  0  0  0  0  0  0  0  0  0  0
    2.8893    0.6285    1.7219 C   0  0  0  0  0  0  0  0  0  0  0  0
   -1.5098    0.5433   -0.2911 C   0  0  0  0  0  0  0  0  0  0  0  0
   -1.4594   -1.9971    0.0129 C   0  0  0  0  0  0  0  0  0  0  0  0
   -2.1864   -0.6755   -0.0560 C   0  0  0  0  0  0  0  0  0  0  0  0
   -2.2656    1.7331   -0.3428 C   0  0  0  0  0  0  0  0  0  0  0  0
   -3.5703   -0.6550    0.1749 C   0  0  0  0  0  0  0  0  0  0  0  0
   -3.6468    1.7342   -0.1211 C   0  0  0  0  0  0  0  0  0  0  0  0
   -4.2926    0.5370    0.1406 C   0  0  0  0  0  0  0  0  0  0  0  0
    5.1825    1.9287    0.1720 H   0  0  0  0  0  0  0  0  0  0  0  0
   -3.7605   -2.6342    0.4653 H   0  0  0  0  0  0  0  0  0  0  0  0
   -6.0549   -0.3356    0.5439 H   0  0  0  0  0  0  0  0  0  0  0  0
    2.0421   -0.6964   -1.4691 H   0  0  0  0  0  0  0  0  0  0  0  0
    0.6376   -0.7411    1.0595 H   0  0  0  0  0  0  0  0  0  0  0  0
    0.0592    0.5465   -1.6491 H   0  0  0  0  0  0  0  0  0  0  0  0
    4.4416    0.5206   -1.3605 H   0  0  0  0  0  0  0  0  0  0  0  0
    2.4242    1.8172   -1.4673 H   0  0  0  0  0  0  0  0  0  0  0  0
    2.7016    2.6503    0.0634 H   0  0  0  0  0  0  0  0  0  0  0  0
    2.9424   -2.6712   -0.7053 H   0  0  0  0  0  0  0  0  0  0  0  0
    2.8379   -2.2493    0.9482 H   0  0  0  0  0  0  0  0  0  0  0  0
    0.5816    1.9915    0.9020 H   0  0  0  0  0  0  0  0  0  0  0  0
    0.3423    2.6504   -0.7320 H   0  0  0  0  0  0  0  0  0  0  0  0
    5.0189   -1.4601    0.8018 H   0  0  0  0  0  0  0  0  0  0  0  0
    5.0453   -1.7310   -0.9011 H   0  0  0  0  0  0  0  0  0  0  0  0
    0.4905   -2.8325   -0.2215 H   0  0  0  0  0  0  0  0  0  0  0  0
   -0.0706   -1.9162   -1.6033 H   0  0  0  0  0  0  0  0  0  0  0  0
    3.3373   -0.2516    2.1336 H   0  0  0  0  0  0  0  0  0  0  0  0
    1.8801    0.7103    2.0680 H   0  0  0  0  0  0  0  0  0  0  0  0
    3.4437    1.4895    2.0321 H   0  0  0  0  0  0  0  0  0  0  0  0
   -1.4164   -2.3038    1.0371 H   0  0  0  0  0  0  0  0  0  0  0  0
   -2.0058   -2.6818   -0.6015 H   0  0  0  0  0  0  0  0  0  0  0  0
   -1.7880    2.6244   -0.5491 H   0  0  0  0  0  0  0  0  0  0  0  0
   -4.1792    2.6177   -0.1523 H   0  0  0  0  0  0  0  0  0  0  0  0
  1  8  1  0  0  0  0
  1 22  1  0  0  0  0
  2 19  1  0  0  0  0
  2 23  1  0  0  0  0
  3 21  1  0  0  0  0
  3 24  1  0  0  0  0
  4  5  1  0  0  0  0
  4  8  1  0  0  0  0
  4  9  1  0  0  0  0
  4 14  1  1  0  0  0
  5  6  1  0  0  0  0
  5 10  1  0  0  0  0
  5 25  1  6  0  0  0
  6  7  1  0  0  0  0
  6 13  1  0  0  0  0
  6 26  1  1  0  0  0
  7 11  1  0  0  0  0
  7 15  1  0  0  0  0
  7 27  1  6  0  0  0
  8 12  1  0  0  0  0
  8 28  1  6  0  0  0
  9 11  1  0  0  0  0
  9 29  1  0  0  0  0
  9 30  1  0  0  0  0
 10 12  1  0  0  0  0
 10 31  1  0  0  0  0
 10 32  1  0  0  0  0
 11 33  1  0  0  0  0
 11 34  1  0  0  0  0
 12 35  1  0  0  0  0
 12 36  1  0  0  0  0
 13 16  1  0  0  0  0
 13 37  1  0  0  0  0
 13 38  1  0  0  0  0
 14 39  1  0  0  0  0
 14 40  1  0  0  0  0
 14 41  1  0  0  0  0
 15 17  2  0  0  0  0
 15 18  1  0  0  0  0
 16 17  1  0  0  0  0
 16 42  1  0  0  0  0
 16 43  1  0  0  0  0
 17 19  1  0  0  0  0
 18 20  2  0  0  0  0
 18 44  1  0  0  0  0
 19 21  2  0  0  0  0
 20 21  1  0  0  0  0
 20 45  1  0  0  0  0
M  END
>  <PUBCHEM_COMPOUND_CID>
5282360

>  <PUBCHEM_CONFORMER_RMSD>
0.6

>  <PUBCHEM_CONFORMER_DIVERSEORDER>
1

>  <PUBCHEM_MMFF94_PARTIAL_CHARGES>
17
1 -0.68
15 -0.14
16 0.14
17 -0.14
18 -0.15
19 0.08
2 -0.53
20 -0.15
21 0.08
3 -0.53
41 0.4
42 0.15
43 0.15
44 0.45
45 0.45
7 0.14
8 0.28

>  <PUBCHEM_EFFECTIVE_ROTOR_COUNT>
1.4

>  <PUBCHEM_PHARMACOPHORE_FEATURES>
8
1 1 acceptor
1 1 donor
1 2 donor
1 3 donor
5 4 5 8 10 12 rings
6 15 17 18 19 20 21 rings
6 4 5 6 7 9 11 rings
6 6 7 13 15 16 17 rings

>  <PUBCHEM_HEAVY_ATOM_COUNT>
21

>  <PUBCHEM_ATOM_DEF_STEREO_COUNT>
5

>  <PUBCHEM_ATOM_UDEF_STEREO_COUNT>
0

>  <PUBCHEM_BOND_DEF_STEREO_COUNT>
0

>  <PUBCHEM_BOND_UDEF_STEREO_COUNT>
0

>  <PUBCHEM_ISOTOPIC_ATOM_COUNT>
0

>  <PUBCHEM_COMPONENT_COUNT>
1

>  <PUBCHEM_CACTVS_TAUTO_COUNT>
53

>  <PUBCHEM_CONFORMER_ID>
00509A3800000001

>  <PUBCHEM_MMFF94_ENERGY>
71.6333

>  <PUBCHEM_FEATURE_SELFOVERLAP>
40.7

>  <PUBCHEM_SHAPE_FINGERPRINT>
10 15 18337944706136028568
10616163 171 18338239378613588718
10646746 165 18412263908753552157
10967382 1 18410575050324472222
11132069 177 18409164407392845149
11578080 2 13612869239478669505
11595378 159 17531514408907043712
12011746 2 18411421682952210062
12107183 9 17688025314764126601
12236239 1 17385725789686913924
12251169 10 18408040727577971285
12403259 226 18340200890684002481
12403259 415 18340482279408062821
12788726 201 17561091254725391784
128620 24 12468356851429954160
13140716 1 17978227488931895698
13224815 77 18335134293462580823
13675066 3 18272649064746223624
14178342 30 18124575729869945250
14341114 176 18410581660484940481
14790565 3 17688034523771088724
14866123 147 16974214592279662994
15042514 8 18264495151773206739
15196674 1 18410575076194626118
15256400 18 18411420574877138077
15295992 7 17846773035526438115
15536298 74 18341895173239766750
15788980 27 16515399651265035391
1601671 61 18409450289069558532
16945 1 18267014136484202814
17349148 13 18412256229842669981
17492 89 18263367052273565355
17804303 29 18410859879797365005
1813 80 17022625256100617580
18186145 218 18202289073812122661
19141452 34 18412826902110528599
19591789 44 18337671901859732302
200 152 18060695092248894293
20261772 1 18271246122511967807
20510252 161 18342458114650921289
21033648 29 17917134048826597849
21267235 1 18337401460569245246
21279426 13 18124035624335362004
21421861 104 17895745181039794050
221490 88 18334867159276124528
22854114 59 18342177765124161161
23402539 116 18341888615225587215
23558518 356 17755018936497207802
23559900 14 18411981321739144446
2748010 2 18339075978118147150
3004659 81 18261116215217966918
335352 9 18410013195846298015
34934 24 18411696612936928934
350125 39 18410015463510233437
351380 180 18410573989868457119
3545911 37 18411983550494848596
4214541 1 18409450258709290805
495365 180 17274809273449818634
5104073 3 18410573968024395322
542803 24 17418095407724247553
59755656 215 18337672993276687381
69090 78 18343016696770282575
77779 3 18409731746549570470
9709674 26 18409454716769611303

>  <PUBCHEM_SHAPE_MULTIPOLES>
414.56
10.04
2.2
0.84
2.05
0.3
0.22
-0.59
1.35
0.25
-0.15
-0.42
-0.1
0.41

>  <PUBCHEM_SHAPE_SELFOVERLAP>
906.385

>  <PUBCHEM_SHAPE_VOLUME>
224.1

>  <PUBCHEM_COORDINATE_TYPE>
2
5
10

>  <Energy>
58.7049

$$$$
