4766
 OpenBabel06012612503D

 39 42  0  0  0  0  0  0  0  0999 V2000
   -0.2159    2.2019   -1.7659 S   0  0  0  0  0  0  0  0  0  0  0  0
   -0.0484    0.5888   -1.6414 O   0  0  0  0  0  0  0  0  0  0  0  0
   -1.5857    2.5128   -2.1064 O   0  0  0  0  0  0  0  0  0  0  0  0
    0.9206    2.7286   -2.4910 O   0  0  0  0  0  0  0  0  0  0  0  0
   -4.8337   -2.8577    0.3570 O   0  0  0  0  0  0  0  0  0  0  0  0
    4.7116   -3.0989    0.2104 O   0  0  0  0  0  0  0  0  0  0  0  0
    0.0106    0.1198   -0.2708 C   0  0  0  0  0  0  0  0  0  0  0  0
    0.1567    1.3624    0.6117 C   0  0  0  0  0  0  0  0  0  0  0  0
    0.0148    2.5581   -0.0846 C   0  0  0  0  0  0  0  0  0  0  0  0
   -1.3121   -0.6542   -0.0902 C   0  0  0  0  0  0  0  0  0  0  0  0
    1.2640   -0.7709   -0.1395 C   0  0  0  0  0  0  0  0  0  0  0  0
    0.4121    1.4216    1.9800 C   0  0  0  0  0  0  0  0  0  0  0  0
    0.1067    3.8105    0.4944 C   0  0  0  0  0  0  0  0  0  0  0  0
   -1.6173   -1.7139   -0.9745 C   0  0  0  0  0  0  0  0  0  0  0  0
    1.2825   -1.9028    0.7010 C   0  0  0  0  0  0  0  0  0  0  0  0
   -2.2444   -0.3657    0.9233 C   0  0  0  0  0  0  0  0  0  0  0  0
    2.4525   -0.4410   -0.8224 C   0  0  0  0  0  0  0  0  0  0  0  0
    0.4959    2.6729    2.6036 C   0  0  0  0  0  0  0  0  0  0  0  0
    0.3439    3.8588    1.8661 C   0  0  0  0  0  0  0  0  0  0  0  0
   -2.7896   -2.4624   -0.8405 C   0  0  0  0  0  0  0  0  0  0  0  0
    2.4261   -2.6974    0.8209 C   0  0  0  0  0  0  0  0  0  0  0  0
   -3.4166   -1.1141    1.0584 C   0  0  0  0  0  0  0  0  0  0  0  0
    3.5984   -1.2294   -0.6932 C   0  0  0  0  0  0  0  0  0  0  0  0
   -3.6798   -2.1548    0.1801 C   0  0  0  0  0  0  0  0  0  0  0  0
    3.5750   -2.3528    0.1206 C   0  0  0  0  0  0  0  0  0  0  0  0
   -5.0430   -3.5671   -0.2182 H   0  0  0  0  0  0  0  0  0  0  0  0
    4.7285   -3.8637    0.7516 H   0  0  0  0  0  0  0  0  0  0  0  0
    0.5379    0.5553    2.5265 H   0  0  0  0  0  0  0  0  0  0  0  0
    0.0040    4.6715   -0.0652 H   0  0  0  0  0  0  0  0  0  0  0  0
   -0.9592   -1.9399   -1.7367 H   0  0  0  0  0  0  0  0  0  0  0  0
    0.4360   -2.1491    1.2374 H   0  0  0  0  0  0  0  0  0  0  0  0
   -2.0595    0.4109    1.5773 H   0  0  0  0  0  0  0  0  0  0  0  0
    2.4762    0.3953   -1.4266 H   0  0  0  0  0  0  0  0  0  0  0  0
    0.6718    2.7245    3.6192 H   0  0  0  0  0  0  0  0  0  0  0  0
    0.4085    4.7714    2.3435 H   0  0  0  0  0  0  0  0  0  0  0  0
   -2.9919   -3.2359   -1.4931 H   0  0  0  0  0  0  0  0  0  0  0  0
    2.4170   -3.5338    1.4253 H   0  0  0  0  0  0  0  0  0  0  0  0
   -4.0863   -0.8926    1.8117 H   0  0  0  0  0  0  0  0  0  0  0  0
    4.4601   -0.9768   -1.2018 H   0  0  0  0  0  0  0  0  0  0  0  0
  1  2  1  0  0  0  0
  1  3  2  0  0  0  0
  1  4  2  0  0  0  0
  1  9  1  0  0  0  0
  2  7  1  0  0  0  0
  5 24  1  0  0  0  0
  5 26  1  0  0  0  0
  6 25  1  0  0  0  0
  6 27  1  0  0  0  0
  7  8  1  0  0  0  0
  7 10  1  0  0  0  0
  7 11  1  0  0  0  0
  8  9  1  0  0  0  0
  8 12  2  0  0  0  0
  9 13  2  0  0  0  0
 10 14  2  0  0  0  0
 10 16  1  0  0  0  0
 11 15  2  0  0  0  0
 11 17  1  0  0  0  0
 12 18  1  0  0  0  0
 12 28  1  0  0  0  0
 13 19  1  0  0  0  0
 13 29  1  0  0  0  0
 14 20  1  0  0  0  0
 14 30  1  0  0  0  0
 15 21  1  0  0  0  0
 15 31  1  0  0  0  0
 16 22  2  0  0  0  0
 16 32  1  0  0  0  0
 17 23  2  0  0  0  0
 17 33  1  0  0  0  0
 18 19  2  0  0  0  0
 18 34  1  0  0  0  0
 19 35  1  0  0  0  0
 20 24  2  0  0  0  0
 20 36  1  0  0  0  0
 21 25  2  0  0  0  0
 21 37  1  0  0  0  0
 22 24  1  0  0  0  0
 22 38  1  0  0  0  0
 23 25  1  0  0  0  0
 23 39  1  0  0  0  0
M  END
>  <PUBCHEM_COMPOUND_CID>
4766

>  <PUBCHEM_CONFORMER_RMSD>
0.6

>  <PUBCHEM_CONFORMER_DIVERSEORDER>
1
2

>  <PUBCHEM_MMFF94_PARTIAL_CHARGES>
39
1 1.49
10 -0.14
11 -0.14
12 -0.15
13 -0.15
14 -0.15
15 -0.15
16 -0.15
17 -0.15
18 -0.15
19 -0.15
2 -0.46
20 -0.15
21 -0.15
22 -0.15
23 -0.15
24 0.08
25 0.08
26 0.15
27 0.15
28 0.15
29 0.15
3 -0.65
30 0.15
31 0.15
32 0.15
33 0.15
34 0.15
35 0.15
36 0.15
37 0.15
38 0.45
39 0.45
4 -0.65
5 -0.53
6 -0.53
7 0.71
8 -0.14
9 -0.01

>  <PUBCHEM_EFFECTIVE_ROTOR_COUNT>
2.4

>  <PUBCHEM_PHARMACOPHORE_FEATURES>
8
1 3 acceptor
1 4 acceptor
1 5 donor
1 6 donor
5 1 2 7 8 9 rings
6 10 14 16 20 22 24 rings
6 11 15 17 21 23 25 rings
6 8 9 12 13 18 19 rings

>  <PUBCHEM_HEAVY_ATOM_COUNT>
25

>  <PUBCHEM_ATOM_DEF_STEREO_COUNT>
0

>  <PUBCHEM_ATOM_UDEF_STEREO_COUNT>
0

>  <PUBCHEM_BOND_DEF_STEREO_COUNT>
0

>  <PUBCHEM_BOND_UDEF_STEREO_COUNT>
0

>  <PUBCHEM_ISOTOPIC_ATOM_COUNT>
0

>  <PUBCHEM_COMPONENT_COUNT>
1

>  <PUBCHEM_CACTVS_TAUTO_COUNT>
3

>  <PUBCHEM_CONFORMER_ID>
0000129E00000001

>  <PUBCHEM_MMFF94_ENERGY>
66.523

>  <PUBCHEM_FEATURE_SELFOVERLAP>
40.674

>  <PUBCHEM_SHAPE_FINGERPRINT>
10165383 225 16532341205878296395
11578080 2 18411407415002943273
12160290 23 17833807401165094238
12173636 292 17479175259091247696
12643181 29 17044584445362003406
12788726 201 18267882596357882378
13004483 165 18339929194894053739
13134695 92 18343298210564982399
13140716 1 18342739563842017010
13149001 5 17907258162297778701
13533116 47 18122071068563593251
13911987 19 17172120492458716646
13955234 65 17979364384535693939
14178342 30 17403169799950890343
14787075 74 18126296469856697852
14817 1 12979252896424913648
14863182 85 17329422256256195103
14955137 171 17984176821991587883
15131766 46 15623931060384514770
16945 1 18053396400260399856
17980427 23 16630525133591587497
17980427 26 17554882548475337677
1813 80 18260545662312491178
20567600 347 17190373626250884267
20600515 1 18269849618243044157
20602899 9 17470435240750632156
20691752 17 17476934914119117985
21120745 212 18197243398226154734
2255824 54 18053106404211375479
22907989 373 18123756357320066238
23419403 2 18199445762470735025
25222932 49 16119915507166457103
283562 15 18264210223342421898
3091708 16 8705707157846059154
3380486 145 17841958270214638630
376196 1 15763028313450585721
394222 165 17183977496582069201
4409770 3 18121776123935594823
469060 322 18187098247629353668
497634 4 18194415394575374350
5895379 119 16053831301997819667
59444896 2 17761263977569712092
59755656 520 17404864752843241062
7364860 26 17914058860969641931
81228 2 18047210560738204378
9999458 23 17768530847617755929

>  <PUBCHEM_SHAPE_MULTIPOLES>
488.99
5.55
5.23
2.03
2.81
2.96
0.3
-9.12
-0.55
-2.41
-1.03
-0.17
2.34
0.18

>  <PUBCHEM_SHAPE_SELFOVERLAP>
1083.472

>  <PUBCHEM_SHAPE_VOLUME>
263.8

>  <PUBCHEM_COORDINATE_TYPE>
2
5
10

>  <Energy>
43.6724

$$$$
