2347
 OpenBabel05142611063D

 43 44  0  0  0  0  0  0  0  0999 V2000
    2.8715    0.2068   -0.1438 O   0  0  0  0  0  0  0  0  0  0  0  0
   -1.4839   -0.3181    0.4056 O   0  0  0  0  0  0  0  0  0  0  0  0
    3.1486   -1.0558    1.7735 O   0  0  0  0  0  0  0  0  0  0  0  0
    0.2413   -0.0951    1.8946 O   0  0  0  0  0  0  0  0  0  0  0  0
    3.9350    2.3127   -0.6199 C   0  0  0  0  0  0  0  0  0  0  0  0
    4.8601    3.4183   -0.1066 C   0  0  0  0  0  0  0  0  0  0  0  0
    3.7499    1.2013    0.4108 C   0  0  0  0  0  0  0  0  0  0  0  0
    1.7516   -1.7870   -0.0029 C   0  0  0  0  0  0  0  0  0  0  0  0
    0.3588   -1.6891    0.1079 C   0  0  0  0  0  0  0  0  0  0  0  0
    5.0660    4.5027   -1.1535 C   0  0  0  0  0  0  0  0  0  0  0  0
    2.6494   -0.8453    0.6817 C   0  0  0  0  0  0  0  0  0  0  0  0
    2.3341   -2.8115   -0.7644 C   0  0  0  0  0  0  0  0  0  0  0  0
   -2.1677    0.7095    1.1227 C   0  0  0  0  0  0  0  0  0  0  0  0
   -3.4873    0.9523    0.4368 C   0  0  0  0  0  0  0  0  0  0  0  0
   -0.4468   -2.6359   -0.5508 C   0  0  0  0  0  0  0  0  0  0  0  0
   -0.2707   -0.6234    0.9250 C   0  0  0  0  0  0  0  0  0  0  0  0
    1.5222   -3.7394   -1.4201 C   0  0  0  0  0  0  0  0  0  0  0  0
    0.1340   -3.6546   -1.3100 C   0  0  0  0  0  0  0  0  0  0  0  0
   -3.5884    1.8912   -0.5993 C   0  0  0  0  0  0  0  0  0  0  0  0
   -4.6245    0.2193    0.8042 C   0  0  0  0  0  0  0  0  0  0  0  0
   -4.8096    2.1092   -1.2390 C   0  0  0  0  0  0  0  0  0  0  0  0
   -5.8445    0.4388    0.1631 C   0  0  0  0  0  0  0  0  0  0  0  0
   -5.9370    1.3851   -0.8561 C   0  0  0  0  0  0  0  0  0  0  0  0
    4.3575    1.8932   -1.5090 H   0  0  0  0  0  0  0  0  0  0  0  0
    2.9767    2.7464   -0.8159 H   0  0  0  0  0  0  0  0  0  0  0  0
    5.8087    2.9904    0.1423 H   0  0  0  0  0  0  0  0  0  0  0  0
    4.4061    3.8638    0.7538 H   0  0  0  0  0  0  0  0  0  0  0  0
    4.6972    0.7593    0.6392 H   0  0  0  0  0  0  0  0  0  0  0  0
    3.3298    1.6013    1.3100 H   0  0  0  0  0  0  0  0  0  0  0  0
    5.5200    4.0767   -2.0238 H   0  0  0  0  0  0  0  0  0  0  0  0
    5.7026    5.2656   -0.7564 H   0  0  0  0  0  0  0  0  0  0  0  0
    4.1204    4.9285   -1.4167 H   0  0  0  0  0  0  0  0  0  0  0  0
    3.3611   -2.8793   -0.8397 H   0  0  0  0  0  0  0  0  0  0  0  0
   -1.5846    1.6066    1.1173 H   0  0  0  0  0  0  0  0  0  0  0  0
   -2.3244    0.4141    2.1391 H   0  0  0  0  0  0  0  0  0  0  0  0
   -1.4742   -2.5773   -0.4727 H   0  0  0  0  0  0  0  0  0  0  0  0
    1.9495   -4.4887   -1.9868 H   0  0  0  0  0  0  0  0  0  0  0  0
   -0.4644   -4.3451   -1.7898 H   0  0  0  0  0  0  0  0  0  0  0  0
   -2.7545    2.4247   -0.8909 H   0  0  0  0  0  0  0  0  0  0  0  0
   -4.5589   -0.4872    1.5536 H   0  0  0  0  0  0  0  0  0  0  0  0
   -4.8777    2.8072   -1.9961 H   0  0  0  0  0  0  0  0  0  0  0  0
   -6.6788   -0.0999    0.4437 H   0  0  0  0  0  0  0  0  0  0  0  0
   -6.8404    1.5496   -1.3271 H   0  0  0  0  0  0  0  0  0  0  0  0
  1  7  1  0  0  0  0
  1 11  1  0  0  0  0
  2 13  1  0  0  0  0
  2 16  1  0  0  0  0
  3 11  2  0  0  0  0
  4 16  2  0  0  0  0
  5  6  1  0  0  0  0
  5  7  1  0  0  0  0
  5 24  1  0  0  0  0
  5 25  1  0  0  0  0
  6 10  1  0  0  0  0
  6 26  1  0  0  0  0
  6 27  1  0  0  0  0
  7 28  1  0  0  0  0
  7 29  1  0  0  0  0
  8  9  1  0  0  0  0
  8 11  1  0  0  0  0
  8 12  2  0  0  0  0
  9 15  2  0  0  0  0
  9 16  1  0  0  0  0
 10 30  1  0  0  0  0
 10 31  1  0  0  0  0
 10 32  1  0  0  0  0
 12 17  1  0  0  0  0
 12 33  1  0  0  0  0
 13 14  1  0  0  0  0
 13 34  1  0  0  0  0
 13 35  1  0  0  0  0
 14 19  2  0  0  0  0
 14 20  1  0  0  0  0
 15 18  1  0  0  0  0
 15 36  1  0  0  0  0
 17 18  2  0  0  0  0
 17 37  1  0  0  0  0
 18 38  1  0  0  0  0
 19 21  1  0  0  0  0
 19 39  1  0  0  0  0
 20 22  2  0  0  0  0
 20 40  1  0  0  0  0
 21 23  2  0  0  0  0
 21 41  1  0  0  0  0
 22 23  1  0  0  0  0
 22 42  1  0  0  0  0
 23 43  1  0  0  0  0
M  END
>  <PUBCHEM_COMPOUND_CID>
2347

>  <PUBCHEM_CONFORMER_RMSD>
1

>  <PUBCHEM_CONFORMER_DIVERSEORDER>
1
82
42
161
84
133
167
113
145
98
177
3
37
200
141
115
93
77
203
188
92
66
148
45
4
123
72
71
180
15
127
85
152
104
97
20
78
56
76
121
129
183
118
6
189
174
81
191
193
11
22
151
181
122
26
187
162
111
163
75
88
91
64
150
116
137
120
31
136
94
9
65
44
40
160
132
124
13
156
105
186
96
165
168
59
173
114
176
139
32
184
135
30
107
185
169
53
102
54
100
198
73
70
17
57
62
138
2
68
7
14
58
90
159
38
47
23
106
36
83
55
95
110
182
195
43
10
179
28
112
49
61
143
154
27
74
34
126
35
33
201
86
134
128
157
60
190
172
24
87
178
192
158
142
117
41
130
46
175
79
48
166
170
39
29
12
171
52
144
164
196
202
80
16
131
5
119
67
99
108
101
18
199
21
153
8
51
69
197
25
63
19
89
149
109
204
140
194
146
50
147
155
125
103

>  <PUBCHEM_MMFF94_PARTIAL_CHARGES>
29
1 -0.43
11 0.63
12 -0.15
13 0.42
14 -0.14
15 -0.15
16 0.63
17 -0.15
18 -0.15
19 -0.15
2 -0.43
20 -0.15
21 -0.15
22 -0.15
23 -0.15
3 -0.57
33 0.15
36 0.15
37 0.15
38 0.15
39 0.15
4 -0.57
40 0.15
41 0.15
42 0.15
43 0.15
7 0.28
8 0.09
9 0.09

>  <PUBCHEM_EFFECTIVE_ROTOR_COUNT>
9

>  <PUBCHEM_PHARMACOPHORE_FEATURES>
5
1 10 hydrophobe
1 3 acceptor
1 4 acceptor
6 14 19 20 21 22 23 rings
6 8 9 12 15 17 18 rings

>  <PUBCHEM_HEAVY_ATOM_COUNT>
23

>  <PUBCHEM_ATOM_DEF_STEREO_COUNT>
0

>  <PUBCHEM_ATOM_UDEF_STEREO_COUNT>
0

>  <PUBCHEM_BOND_DEF_STEREO_COUNT>
0

>  <PUBCHEM_BOND_UDEF_STEREO_COUNT>
0

>  <PUBCHEM_ISOTOPIC_ATOM_COUNT>
0

>  <PUBCHEM_COMPONENT_COUNT>
1

>  <PUBCHEM_CACTVS_TAUTO_COUNT>
1

>  <PUBCHEM_CONFORMER_ID>
0000092B00000001

>  <PUBCHEM_MMFF94_ENERGY>
59.671

>  <PUBCHEM_FEATURE_SELFOVERLAP>
25.373

>  <PUBCHEM_SHAPE_FINGERPRINT>
10871710 139 17831866020555475220
10937287 8 18339645667434613156
12293681 4 16678362375875528998
12633257 1 14996845558337440388
12788726 201 17839165656535292686
12895837 130 17756715496288868884
13583140 156 17896326822358786099
13836976 161 18200587008401240746
13911987 19 18271816777721374313
14142880 1 17900537084393520316
14251764 38 18189331277908869981
14774955 27 18408322206939592705
15475509 35 10231169586339334733
15537594 2 17203032025286897895
15575132 122 18121507005210354244
15849732 13 18340195281900040426
15961568 22 17967537852314496733
16120349 189 18116714221657780076
16992828 155 17899128596940553700
17134986 127 18341339950544668078
17980427 26 17604130619840725626
20645477 70 18057319475498431699
21033648 29 15285623375262575965
21365058 113 17839759070675745358
22149856 69 18060143112122307219
23559900 14 18194683657758077771
239999 70 18267864969859598283
24893989 43 15190730166309749029
2838139 119 18261106417849022948
3057174 1 18131641096947604174
312423 11 17201360664111541451
328310 1195 18117548540360650117
34797466 226 18336543816679303093
46194498 28 18337384921457349181
5223283 242 17475796447375487293
5281201 14 18124314900779381639
6034566 193 18265331892252297301
6327066 14 18265052608025801708
7808743 9 18194683898307745376

>  <PUBCHEM_SHAPE_MULTIPOLES>
449.85
12.27
5.22
1.4
10.51
0.12
-0.18
16.53
2.35
-8.6
3.39
-0.12
-0.25
-0.2

>  <PUBCHEM_SHAPE_SELFOVERLAP>
945.783

>  <PUBCHEM_SHAPE_VOLUME>
253.2

>  <PUBCHEM_COORDINATE_TYPE>
2
5
10

>  <Energy>
39.1911

$$$$
