5753
 OpenBabel06012612503D

 55 58  0  0  1  0  0  0  0  0999 V2000
   -0.0616   -1.9126    1.4400 O   0  0  0  0  0  0  0  0  0  0  0  0
   -5.3426    0.2937    0.5792 O   0  0  0  0  0  0  0  0  0  0  0  0
    6.2724   -0.3634   -1.2672 O   0  0  0  0  0  0  0  0  0  0  0  0
   -6.2166   -1.9966   -0.6691 O   0  0  0  0  0  0  0  0  0  0  0  0
   -1.0961    1.2045   -0.3015 C   0  0  2  0  0  0  0  0  0  0  0  0
   -2.0554    0.0550    0.0711 C   0  0  2  0  0  0  0  0  0  0  0  0
    0.2869    1.0822    0.3519 C   0  0  1  0  0  0  0  0  0  0  0  0
    0.9465   -0.2574   -0.1169 C   0  0  1  0  0  0  0  0  0  0  0  0
    2.4256   -0.4410    0.4181 C   0  0  2  0  0  0  0  0  0  0  0  0
   -1.4260   -1.2567   -0.4344 C   0  0  0  0  0  0  0  0  0  0  0  0
   -3.3091    0.5155   -0.7133 C   0  0  2  0  0  0  0  0  0  0  0  0
    0.0082   -1.4838    0.0887 C   0  0  2  0  0  0  0  0  0  0  0  0
   -1.9289    2.4557   -0.0484 C   0  0  0  0  0  0  0  0  0  0  0  0
    1.1709    2.2771   -0.0383 C   0  0  0  0  0  0  0  0  0  0  0  0
   -3.3388    2.0515   -0.5111 C   0  0  0  0  0  0  0  0  0  0  0  0
    3.2200    0.8387    0.1238 C   0  0  0  0  0  0  0  0  0  0  0  0
   -2.3830   -0.0268    1.5835 C   0  0  0  0  0  0  0  0  0  0  0  0
    2.5789    2.1439    0.5227 C   0  0  0  0  0  0  0  0  0  0  0  0
    3.0588   -1.6507   -0.3313 C   0  0  0  0  0  0  0  0  0  0  0  0
    2.5196   -0.6837    1.9358 C   0  0  0  0  0  0  0  0  0  0  0  0
   -4.6138   -0.1613   -0.3030 C   0  0  0  0  0  0  0  0  0  0  0  0
    4.5744   -1.7035   -0.2267 C   0  0  0  0  0  0  0  0  0  0  0  0
    4.4485    0.8461   -0.4441 C   0  0  0  0  0  0  0  0  0  0  0  0
    5.1712   -0.4129   -0.7249 C   0  0  0  0  0  0  0  0  0  0  0  0
   -4.9855   -1.4264   -1.0717 C   0  0  0  0  0  0  0  0  0  0  0  0
    0.8352   -2.0586    1.7796 H   0  0  0  0  0  0  0  0  0  0  0  0
   -6.3914   -2.7929   -1.1946 H   0  0  0  0  0  0  0  0  0  0  0  0
   -0.7698    1.2091   -1.3205 H   0  0  0  0  0  0  0  0  0  0  0  0
    0.1832    1.0807    1.4169 H   0  0  0  0  0  0  0  0  0  0  0  0
    1.0702   -0.1922   -1.1778 H   0  0  0  0  0  0  0  0  0  0  0  0
   -1.3979   -1.2304   -1.5037 H   0  0  0  0  0  0  0  0  0  0  0  0
   -2.0293   -2.0608   -0.0680 H   0  0  0  0  0  0  0  0  0  0  0  0
   -3.2355    0.2309   -1.7421 H   0  0  0  0  0  0  0  0  0  0  0  0
    0.4659   -2.2534   -0.4970 H   0  0  0  0  0  0  0  0  0  0  0  0
   -1.5612    3.2816   -0.6208 H   0  0  0  0  0  0  0  0  0  0  0  0
   -1.9017    2.7736    0.9729 H   0  0  0  0  0  0  0  0  0  0  0  0
    0.7293    3.1740    0.3431 H   0  0  0  0  0  0  0  0  0  0  0  0
    1.2392    2.3064   -1.1057 H   0  0  0  0  0  0  0  0  0  0  0  0
   -4.0617    2.3129    0.2333 H   0  0  0  0  0  0  0  0  0  0  0  0
   -3.6104    2.5566   -1.4144 H   0  0  0  0  0  0  0  0  0  0  0  0
   -1.5136   -0.3452    2.1200 H   0  0  0  0  0  0  0  0  0  0  0  0
   -3.1753   -0.7289    1.7394 H   0  0  0  0  0  0  0  0  0  0  0  0
   -2.6861    0.9371    1.9355 H   0  0  0  0  0  0  0  0  0  0  0  0
    2.5324    2.1948    1.5905 H   0  0  0  0  0  0  0  0  0  0  0  0
    3.1719    2.9408    0.1250 H   0  0  0  0  0  0  0  0  0  0  0  0
    2.7929   -1.5851   -1.3656 H   0  0  0  0  0  0  0  0  0  0  0  0
    2.6806   -2.5392    0.1296 H   0  0  0  0  0  0  0  0  0  0  0  0
    2.0861    0.1442    2.4569 H   0  0  0  0  0  0  0  0  0  0  0  0
    3.5468   -0.7844    2.2179 H   0  0  0  0  0  0  0  0  0  0  0  0
    1.9912   -1.5795    2.1871 H   0  0  0  0  0  0  0  0  0  0  0  0
    4.9422   -2.5155   -0.8184 H   0  0  0  0  0  0  0  0  0  0  0  0
    4.8508   -1.8457    0.7972 H   0  0  0  0  0  0  0  0  0  0  0  0
    4.8892    1.7475   -0.6856 H   0  0  0  0  0  0  0  0  0  0  0  0
   -5.0502   -1.1829   -2.1116 H   0  0  0  0  0  0  0  0  0  0  0  0
   -4.2245   -2.1506   -0.8680 H   0  0  0  0  0  0  0  0  0  0  0  0
  1 12  1  0  0  0  0
  1 26  1  0  0  0  0
  2 21  2  0  0  0  0
  3 24  2  0  0  0  0
  4 25  1  0  0  0  0
  4 27  1  0  0  0  0
  5  6  1  0  0  0  0
  5  7  1  0  0  0  0
  5 13  1  0  0  0  0
  5 28  1  6  0  0  0
  6 10  1  0  0  0  0
  6 11  1  0  0  0  0
  6 17  1  1  0  0  0
  7  8  1  0  0  0  0
  7 14  1  0  0  0  0
  7 29  1  1  0  0  0
  8  9  1  0  0  0  0
  8 12  1  0  0  0  0
  8 30  1  6  0  0  0
  9 16  1  0  0  0  0
  9 19  1  0  0  0  0
  9 20  1  1  0  0  0
 10 12  1  0  0  0  0
 10 31  1  0  0  0  0
 10 32  1  0  0  0  0
 11 15  1  0  0  0  0
 11 21  1  0  0  0  0
 11 33  1  6  0  0  0
 12 34  1  6  0  0  0
 13 15  1  0  0  0  0
 13 35  1  0  0  0  0
 13 36  1  0  0  0  0
 14 18  1  0  0  0  0
 14 37  1  0  0  0  0
 14 38  1  0  0  0  0
 15 39  1  0  0  0  0
 15 40  1  0  0  0  0
 16 18  1  0  0  0  0
 16 23  2  0  0  0  0
 17 41  1  0  0  0  0
 17 42  1  0  0  0  0
 17 43  1  0  0  0  0
 18 44  1  0  0  0  0
 18 45  1  0  0  0  0
 19 22  1  0  0  0  0
 19 46  1  0  0  0  0
 19 47  1  0  0  0  0
 20 48  1  0  0  0  0
 20 49  1  0  0  0  0
 20 50  1  0  0  0  0
 21 25  1  0  0  0  0
 22 24  1  0  0  0  0
 22 51  1  0  0  0  0
 22 52  1  0  0  0  0
 23 24  1  0  0  0  0
 23 53  1  0  0  0  0
 25 54  1  0  0  0  0
 25 55  1  0  0  0  0
M  END
>  <PUBCHEM_COMPOUND_CID>
5753

>  <PUBCHEM_CONFORMER_RMSD>
0.8

>  <PUBCHEM_CONFORMER_DIVERSEORDER>
1
2
3

>  <PUBCHEM_MMFF94_PARTIAL_CHARGES>
17
1 -0.68
11 0.06
12 0.28
16 -0.28
18 0.14
2 -0.57
21 0.45
22 0.06
23 -0.14
24 0.49
25 0.34
3 -0.57
4 -0.68
51 0.4
52 0.15
55 0.4
9 0.14

>  <PUBCHEM_EFFECTIVE_ROTOR_COUNT>
3.8

>  <PUBCHEM_PHARMACOPHORE_FEATURES>
10
1 1 acceptor
1 1 donor
1 2 acceptor
1 3 acceptor
1 4 acceptor
1 4 donor
5 5 6 11 13 15 rings
6 5 6 7 8 10 12 rings
6 7 8 9 14 16 18 rings
6 9 16 19 22 23 24 rings

>  <PUBCHEM_HEAVY_ATOM_COUNT>
25

>  <PUBCHEM_ATOM_DEF_STEREO_COUNT>
7

>  <PUBCHEM_ATOM_UDEF_STEREO_COUNT>
0

>  <PUBCHEM_BOND_DEF_STEREO_COUNT>
0

>  <PUBCHEM_BOND_UDEF_STEREO_COUNT>
0

>  <PUBCHEM_ISOTOPIC_ATOM_COUNT>
0

>  <PUBCHEM_COMPONENT_COUNT>
1

>  <PUBCHEM_CACTVS_TAUTO_COUNT>
20

>  <PUBCHEM_CONFORMER_ID>
0000167900000001

>  <PUBCHEM_MMFF94_ENERGY>
79.7462

>  <PUBCHEM_FEATURE_SELFOVERLAP>
50.849

>  <PUBCHEM_SHAPE_FINGERPRINT>
10366900 7 17966970525741375457
10498660 4 18041273253920121084
11961588 58 17240768423528979620
11963148 33 18340759425274894519
12011746 2 18259705605263612508
12166972 35 18060422447023642857
12236239 1 17775289382622113073
12403259 226 18412254021887237805
12403259 415 18335132081713296197
12788726 201 18335417907417986081
12916754 54 18343580746456851609
13224815 77 18187081719882821401
13533116 47 17917148428292779777
13583140 156 14057014831484069429
13862211 1 18410006628857249610
14787075 74 18334577944800027411
14931854 50 18261396616115029462
15142383 8 14979966834721333139
15196674 1 18410853226808822284
16752209 62 18336540530343565008
16945 1 18341884195387845240
17349148 13 17967531255507758755
19591789 44 18410851032180546423
200 152 17989487428724773161
20028762 73 18201994460779341975
20645477 70 18409724105966683972
20691752 17 17386005022733225336
20775438 99 17552043596784043143
20871999 31 18335143064102316844
21033648 29 18113889464184070909
21267235 1 18340491157690714431
221357 26 18411980256265573156
22393880 68 18262508213348350381
23402539 116 18413103953270794573
23522609 53 18125192452265805817
23559900 14 18341324582508273576
2871803 45 18261105292224420561
296302 2 14490194899214243024
335352 9 18412824664991873301
350125 39 18411984620448503721
4280585 95 17332809349339842310
4340502 62 15864077550526043840
46194498 28 18202569492796812268
465052 167 18130791195601632815
474 4 17095537218519380204
484989 97 18042978759632137747
5104073 3 18342732984004880521
59755656 215 18410291385384017271
7495541 125 17489862765141916834
9709674 26 18336826489076085569

>  <PUBCHEM_SHAPE_MULTIPOLES>
491.01
11.83
2.35
1.15
1.61
0.66
-0.42
-4.14
3.89
0.55
0.1
-0.23
-0.29
-0.16

>  <PUBCHEM_SHAPE_SELFOVERLAP>
1051.882

>  <PUBCHEM_SHAPE_VOLUME>
267.8

>  <PUBCHEM_COORDINATE_TYPE>
2
5
10

>  <Energy>
105.56

$$$$
