6291
 OpenBabel05142611063D

 49 52  0  0  1  0  0  0  0  0999 V2000
   -4.9025    0.9058   -1.1286 O   0  0  0  0  0  0  0  0  0  0  0  0
    6.0009   -0.0883   -0.1192 O   0  0  0  0  0  0  0  0  0  0  0  0
   -2.5343    0.4319   -0.5896 C   0  0  1  0  0  0  0  0  0  0  0  0
   -1.9059   -0.7708    0.1514 C   0  0  2  0  0  0  0  0  0  0  0  0
   -0.4064   -0.9116   -0.1216 C   0  0  1  0  0  0  0  0  0  0  0  0
   -4.0376    0.2366   -0.2190 C   0  0  2  0  0  0  0  0  0  0  0  0
    0.3199    0.3725    0.3713 C   0  0  2  0  0  0  0  0  0  0  0  0
   -1.8436    1.7140   -0.0889 C   0  0  0  0  0  0  0  0  0  0  0  0
   -2.8290   -1.9324   -0.2075 C   0  0  0  0  0  0  0  0  0  0  0  0
   -0.3116    1.6494   -0.2465 C   0  0  0  0  0  0  0  0  0  0  0  0
   -4.2273   -1.2979   -0.3400 C   0  0  0  0  0  0  0  0  0  0  0  0
    0.2044   -2.1277    0.5789 C   0  0  0  0  0  0  0  0  0  0  0  0
   -2.3718    0.3665   -2.1372 C   0  0  0  0  0  0  0  0  0  0  0  0
    1.8281    0.2516    0.2057 C   0  0  0  0  0  0  0  0  0  0  0  0
    1.6595   -2.2926    0.1582 C   0  0  0  0  0  0  0  0  0  0  0  0
    2.4539   -1.0109    0.1438 C   0  0  0  0  0  0  0  0  0  0  0  0
   -4.3760    0.6825    1.1485 C   0  0  0  0  0  0  0  0  0  0  0  0
    2.6441    1.3953    0.2009 C   0  0  0  0  0  0  0  0  0  0  0  0
    3.8566   -1.0988    0.0217 C   0  0  0  0  0  0  0  0  0  0  0  0
    4.0219    1.2987    0.0911 C   0  0  0  0  0  0  0  0  0  0  0  0
    4.6418    0.0566   -0.0046 C   0  0  0  0  0  0  0  0  0  0  0  0
   -4.6482    1.0351    2.2626 C   0  0  0  0  0  0  0  0  0  0  0  0
    6.7502    1.1310   -0.1345 C   0  0  0  0  0  0  0  0  0  0  0  0
   -4.6971    0.6270   -2.0346 H   0  0  0  0  0  0  0  0  0  0  0  0
   -1.8683   -0.6813    1.2170 H   0  0  0  0  0  0  0  0  0  0  0  0
   -0.2806   -1.0477   -1.1754 H   0  0  0  0  0  0  0  0  0  0  0  0
    0.1698    0.4784    1.4254 H   0  0  0  0  0  0  0  0  0  0  0  0
   -2.0780    1.8500    0.9462 H   0  0  0  0  0  0  0  0  0  0  0  0
   -2.2004    2.5316   -0.6797 H   0  0  0  0  0  0  0  0  0  0  0  0
   -2.8223   -2.6719    0.5658 H   0  0  0  0  0  0  0  0  0  0  0  0
   -2.5238   -2.4282   -1.1053 H   0  0  0  0  0  0  0  0  0  0  0  0
   -0.0770    1.6725   -1.2903 H   0  0  0  0  0  0  0  0  0  0  0  0
    0.0951    2.4882    0.2787 H   0  0  0  0  0  0  0  0  0  0  0  0
   -4.6540   -1.5423   -1.2903 H   0  0  0  0  0  0  0  0  0  0  0  0
   -4.8878   -1.6636    0.4182 H   0  0  0  0  0  0  0  0  0  0  0  0
   -0.3446   -3.0055    0.3087 H   0  0  0  0  0  0  0  0  0  0  0  0
    0.1583   -1.9838    1.6382 H   0  0  0  0  0  0  0  0  0  0  0  0
   -2.8452   -0.5183   -2.5084 H   0  0  0  0  0  0  0  0  0  0  0  0
   -1.3313    0.3455   -2.3859 H   0  0  0  0  0  0  0  0  0  0  0  0
   -2.8271    1.2274   -2.5803 H   0  0  0  0  0  0  0  0  0  0  0  0
    1.6776   -2.7084   -0.8275 H   0  0  0  0  0  0  0  0  0  0  0  0
    2.1177   -2.9272    0.8877 H   0  0  0  0  0  0  0  0  0  0  0  0
    2.2079    2.3272    0.2809 H   0  0  0  0  0  0  0  0  0  0  0  0
    4.3067   -2.0247   -0.0489 H   0  0  0  0  0  0  0  0  0  0  0  0
    4.5946    2.1571    0.0801 H   0  0  0  0  0  0  0  0  0  0  0  0
   -4.8737    1.3272    3.1855 H   0  0  0  0  0  0  0  0  0  0  0  0
    7.7926    0.9079   -0.2265 H   0  0  0  0  0  0  0  0  0  0  0  0
    6.5791    1.6662    0.7761 H   0  0  0  0  0  0  0  0  0  0  0  0
    6.4391    1.7305   -0.9644 H   0  0  0  0  0  0  0  0  0  0  0  0
  1  6  1  0  0  0  0
  1 24  1  0  0  0  0
  2 21  1  0  0  0  0
  2 23  1  0  0  0  0
  3  4  1  0  0  0  0
  3  6  1  0  0  0  0
  3  8  1  0  0  0  0
  3 13  1  6  0  0  0
  4  5  1  0  0  0  0
  4  9  1  0  0  0  0
  4 25  1  1  0  0  0
  5  7  1  0  0  0  0
  5 12  1  0  0  0  0
  5 26  1  6  0  0  0
  6 11  1  0  0  0  0
  6 17  1  1  0  0  0
  7 10  1  0  0  0  0
  7 14  1  0  0  0  0
  7 27  1  1  0  0  0
  8 10  1  0  0  0  0
  8 28  1  0  0  0  0
  8 29  1  0  0  0  0
  9 11  1  0  0  0  0
  9 30  1  0  0  0  0
  9 31  1  0  0  0  0
 10 32  1  0  0  0  0
 10 33  1  0  0  0  0
 11 34  1  0  0  0  0
 11 35  1  0  0  0  0
 12 15  1  0  0  0  0
 12 36  1  0  0  0  0
 12 37  1  0  0  0  0
 13 38  1  0  0  0  0
 13 39  1  0  0  0  0
 13 40  1  0  0  0  0
 14 16  2  0  0  0  0
 14 18  1  0  0  0  0
 15 16  1  0  0  0  0
 15 41  1  0  0  0  0
 15 42  1  0  0  0  0
 16 19  1  0  0  0  0
 17 22  3  0  0  0  0
 18 20  2  0  0  0  0
 18 43  1  0  0  0  0
 19 21  2  0  0  0  0
 19 44  1  0  0  0  0
 20 21  1  0  0  0  0
 20 45  1  0  0  0  0
 22 46  1  0  0  0  0
 23 47  1  0  0  0  0
 23 48  1  0  0  0  0
 23 49  1  0  0  0  0
M  END
>  <PUBCHEM_COMPOUND_CID>
6291

>  <PUBCHEM_CONFORMER_RMSD>
0.6

>  <PUBCHEM_CONFORMER_DIVERSEORDER>
1

>  <PUBCHEM_MMFF94_PARTIAL_CHARGES>
19
1 -0.68
14 -0.14
15 0.14
16 -0.14
17 -0.2
18 -0.15
19 -0.15
2 -0.36
20 -0.15
21 0.08
22 -0.18
23 0.28
42 0.4
43 0.15
44 0.15
45 0.15
46 0.18
6 0.48
7 0.14

>  <PUBCHEM_EFFECTIVE_ROTOR_COUNT>
2.4

>  <PUBCHEM_PHARMACOPHORE_FEATURES>
8
1 1 acceptor
1 1 donor
1 2 acceptor
1 22 hydrophobe
5 3 4 6 9 11 rings
6 14 16 18 19 20 21 rings
6 3 4 5 7 8 10 rings
6 5 7 12 14 15 16 rings

>  <PUBCHEM_HEAVY_ATOM_COUNT>
23

>  <PUBCHEM_ATOM_DEF_STEREO_COUNT>
5

>  <PUBCHEM_ATOM_UDEF_STEREO_COUNT>
0

>  <PUBCHEM_BOND_DEF_STEREO_COUNT>
0

>  <PUBCHEM_BOND_UDEF_STEREO_COUNT>
0

>  <PUBCHEM_ISOTOPIC_ATOM_COUNT>
0

>  <PUBCHEM_COMPONENT_COUNT>
1

>  <PUBCHEM_CACTVS_TAUTO_COUNT>
1

>  <PUBCHEM_CONFORMER_ID>
0000189300000001

>  <PUBCHEM_MMFF94_ENERGY>
87.6501

>  <PUBCHEM_FEATURE_SELFOVERLAP>
40.689

>  <PUBCHEM_SHAPE_FINGERPRINT>
10 15 17603586361563915664
10411042 1 17615409594169938658
10906281 52 18268448948309854700
11315181 36 17917991706487703640
11578080 2 17025136441716227623
11796584 16 14908184132055513276
12236239 1 17704073984568585312
12403259 415 18335691780624251228
12403814 3 17603300441142715919
12644460 14 18260545580977229314
12788726 201 16988009262603415857
128620 24 17458063750694818758
13140716 1 18264779929141645513
13224815 77 18409163307475159003
14341114 328 18342458123240712786
14765038 42 18270415926549765248
14790565 3 18339085981524753784
15163728 17 15481005419377343721
15183329 4 18410012109931838510
15196674 1 18409445899333361534
15209289 33 18413671331034785105
15788980 27 17748824120245073376
1601671 61 18413389830652163490
16945 1 18265602196129677859
17844677 252 16128655279796370880
18186145 218 18409724067306352750
19489759 90 15195566793015729817
200 152 17847059995556180418
21033648 29 17968079937422243156
21236236 1 18338236080200128587
21267235 1 18338239374761687487
21756936 100 17846787291161125489
23198884 109 17132117939487640464
23402539 116 18411130368579938086
23402655 69 18202002140364768326
23522609 53 18195274233094510864
23536379 177 16558753399612922408
23559900 14 18341886455015740984
3004659 81 18261110748014664746
335352 9 18410008840559471284
34934 24 18335976485373891119
350125 39 18409166632439560268
3545911 37 18408884044390625622
3680242 22 18335698300563766858
4340502 62 16298386855985879106
5104073 3 18411134779543123658
542803 24 17632578249478015464
59755656 215 18409167680411360030
633830 44 18130785689738298084
9709674 26 18410295808894928806

>  <PUBCHEM_SHAPE_MULTIPOLES>
461.59
12.31
2.04
1.2
11.77
0.7
-0.04
-3.55
-0.76
0.02
-0.17
-2.02
-0.36
-0.53

>  <PUBCHEM_SHAPE_SELFOVERLAP>
1000.428

>  <PUBCHEM_SHAPE_VOLUME>
252

>  <PUBCHEM_COORDINATE_TYPE>
2
5
10

>  <Energy>
77.4992

$$$$
