76302
 OpenBabel06012612503D

 30 31  0  0  0  0  0  0  0  0999 V2000
   -0.2606   -2.6152   -1.7521 Cl  0  0  0  0  0  0  0  0  0  0  0  0
   -1.4256   -3.3000    0.8038 Cl  0  0  0  0  0  0  0  0  0  0  0  0
    1.4513   -3.3100    0.4939 Cl  0  0  0  0  0  0  0  0  0  0  0  0
   -4.6903    2.1466   -0.4651 O   0  0  0  0  0  0  0  0  0  0  0  0
    4.7400    2.1283   -0.3373 O   0  0  0  0  0  0  0  0  0  0  0  0
    0.0032   -0.9246    0.5486 C   0  0  0  0  0  0  0  0  0  0  0  0
   -1.2511   -0.0860    0.2692 C   0  0  0  0  0  0  0  0  0  0  0  0
    1.2752   -0.1064    0.2819 C   0  0  0  0  0  0  0  0  0  0  0  0
   -0.0484   -2.4091    0.0229 C   0  0  0  0  0  0  0  0  0  0  0  0
   -2.0901    0.2918    1.3327 C   0  0  0  0  0  0  0  0  0  0  0  0
    1.7748    0.7309    1.3002 C   0  0  0  0  0  0  0  0  0  0  0  0
   -1.5842    0.3424   -1.0257 C   0  0  0  0  0  0  0  0  0  0  0  0
    1.9573   -0.1301   -0.9427 C   0  0  0  0  0  0  0  0  0  0  0  0
   -3.2460    1.0439    1.1041 C   0  0  0  0  0  0  0  0  0  0  0  0
    2.9346    1.4869    1.1114 C   0  0  0  0  0  0  0  0  0  0  0  0
   -2.7470    1.0800   -1.2558 C   0  0  0  0  0  0  0  0  0  0  0  0
    3.1197    0.6192   -1.1291 C   0  0  0  0  0  0  0  0  0  0  0  0
   -3.5684    1.4229   -0.1923 C   0  0  0  0  0  0  0  0  0  0  0  0
    3.6010    1.4166   -0.1033 C   0  0  0  0  0  0  0  0  0  0  0  0
   -5.2677    2.3954    0.2297 H   0  0  0  0  0  0  0  0  0  0  0  0
    5.0948    2.6783    0.3332 H   0  0  0  0  0  0  0  0  0  0  0  0
    0.0366   -1.1333    1.5975 H   0  0  0  0  0  0  0  0  0  0  0  0
   -1.8489    0.0099    2.2957 H   0  0  0  0  0  0  0  0  0  0  0  0
    1.2748    0.7864    2.2013 H   0  0  0  0  0  0  0  0  0  0  0  0
   -0.9627    0.1095   -1.8160 H   0  0  0  0  0  0  0  0  0  0  0  0
    1.5952   -0.7092   -1.7163 H   0  0  0  0  0  0  0  0  0  0  0  0
   -3.8546    1.3151    1.8922 H   0  0  0  0  0  0  0  0  0  0  0  0
    3.2918    2.0914    1.8678 H   0  0  0  0  0  0  0  0  0  0  0  0
   -2.9947    1.3694   -2.2150 H   0  0  0  0  0  0  0  0  0  0  0  0
    3.6206    0.5795   -2.0305 H   0  0  0  0  0  0  0  0  0  0  0  0
  1  9  1  0  0  0  0
  2  9  1  0  0  0  0
  3  9  1  0  0  0  0
  4 18  1  0  0  0  0
  4 20  1  0  0  0  0
  5 19  1  0  0  0  0
  5 21  1  0  0  0  0
  6  7  1  0  0  0  0
  6  8  1  0  0  0  0
  6  9  1  0  0  0  0
  6 22  1  0  0  0  0
  7 10  2  0  0  0  0
  7 12  1  0  0  0  0
  8 11  2  0  0  0  0
  8 13  1  0  0  0  0
 10 14  1  0  0  0  0
 10 23  1  0  0  0  0
 11 15  1  0  0  0  0
 11 24  1  0  0  0  0
 12 16  2  0  0  0  0
 12 25  1  0  0  0  0
 13 17  2  0  0  0  0
 13 26  1  0  0  0  0
 14 18  2  0  0  0  0
 14 27  1  0  0  0  0
 15 19  2  0  0  0  0
 15 28  1  0  0  0  0
 16 18  1  0  0  0  0
 16 29  1  0  0  0  0
 17 19  1  0  0  0  0
 17 30  1  0  0  0  0
M  END
>  <PUBCHEM_COMPOUND_CID>
76302

>  <PUBCHEM_CONFORMER_RMSD>
0.6

>  <PUBCHEM_CONFORMER_DIVERSEORDER>
1
2

>  <PUBCHEM_MMFF94_PARTIAL_CHARGES>
29
1 -0.29
10 -0.15
11 -0.15
12 -0.15
13 -0.15
14 -0.15
15 -0.15
16 -0.15
17 -0.15
18 0.08
19 0.08
2 -0.29
21 0.15
22 0.15
23 0.15
24 0.15
25 0.15
26 0.15
27 0.15
28 0.15
29 0.45
3 -0.29
30 0.45
4 -0.53
5 -0.53
6 0.29
7 -0.14
8 -0.14
9 0.87

>  <PUBCHEM_EFFECTIVE_ROTOR_COUNT>
3

>  <PUBCHEM_PHARMACOPHORE_FEATURES>
4
1 4 donor
1 5 donor
6 7 10 12 14 16 18 rings
6 8 11 13 15 17 19 rings

>  <PUBCHEM_HEAVY_ATOM_COUNT>
19

>  <PUBCHEM_ATOM_DEF_STEREO_COUNT>
0

>  <PUBCHEM_ATOM_UDEF_STEREO_COUNT>
0

>  <PUBCHEM_BOND_DEF_STEREO_COUNT>
0

>  <PUBCHEM_BOND_UDEF_STEREO_COUNT>
0

>  <PUBCHEM_ISOTOPIC_ATOM_COUNT>
0

>  <PUBCHEM_COMPONENT_COUNT>
1

>  <PUBCHEM_CACTVS_TAUTO_COUNT>
3

>  <PUBCHEM_CONFORMER_ID>
00012A0E00000001

>  <PUBCHEM_MMFF94_ENERGY>
61.6194

>  <PUBCHEM_FEATURE_SELFOVERLAP>
20.297

>  <PUBCHEM_SHAPE_FINGERPRINT>
10165383 225 18120407356138525364
10498660 4 18411978057517150261
12138202 97 18130227185123474958
12173636 292 18192711365603983388
12251169 10 14923943452989999616
12363563 72 9943806690006164940
12500047 106 18340487889225779288
12532896 13 18410574024086069574
12633257 1 15213303044810954764
12730499 353 18337963281705845265
12788726 201 17978215381472348806
13134695 92 17831288402930340790
13294875 104 18201423758625423514
13583140 156 16660916794076333401
13681431 1 17693098461415093767
14142880 1 18263072391598848661
14787075 74 18058444490804905097
14955137 171 18055067658167475154
15309172 13 18335424568906649105
16752209 62 18123452037296678906
16945 1 18334295348821034762
17134986 127 18410292501832836260
17357779 13 17697307778863771191
1741750 31 18411416254345721280
1813 80 17338437783257604486
18186145 218 18202012009809295820
18219364 16 18339655519667805385
18222031 100 11602545316262881977
18785283 64 18189057494996429994
19765921 60 18272641329831890083
20510252 161 18051976119163776106
21524375 3 18342172254407002174
21756936 100 16517677969082824884
2255824 54 18052534379250501043
22907989 373 17982455102545641300
23419403 2 17481197475343934263
23557571 272 17981903139873235636
23559900 14 17170129040598334775
238 59 18200316507208136319
25 1 18059586766857733296
2748010 2 18129114462034092370
283562 15 18048873297350672834
3082319 5 16128657444191147913
350125 39 18408610265996050162
3729539 64 17976286563943310534
474 4 18341046315945661353
495365 180 18117833296966369137
5845 1 17264400428354999695
633830 44 17916042182451669721
6442390 28 18337968860567870747
7364860 26 18123182411844275603
7808743 9 18189620608517876252
81228 2 17907577286978859586
8272917 22 18125724483329028373
84936 182 18198339555031162353
9981440 41 16841315939320689424

>  <PUBCHEM_SHAPE_MULTIPOLES>
384.88
6.7
3.38
1.46
0.17
3.52
0.19
-7.43
0.59
0.03
-0.13
-0.18
0.14
0.32

>  <PUBCHEM_SHAPE_SELFOVERLAP>
795.624

>  <PUBCHEM_SHAPE_VOLUME>
218.8

>  <PUBCHEM_COORDINATE_TYPE>
2
5
10

>  <Energy>
69.4928

$$$$
