3314
 OpenBabel06012612503D

 24 24  0  0  0  0  0  0  0  0999 V2000
    2.0698    1.4884    0.5921 O   0  0  0  0  0  0  0  0  0  0  0  0
    3.0740   -0.8958   -0.4382 O   0  0  0  0  0  0  0  0  0  0  0  0
   -0.9939   -0.5108    0.4028 C   0  0  0  0  0  0  0  0  0  0  0  0
   -2.4668   -0.3650    0.7029 C   0  0  0  0  0  0  0  0  0  0  0  0
   -0.1210    0.5706    0.5948 C   0  0  0  0  0  0  0  0  0  0  0  0
    1.2373    0.4392    0.3023 C   0  0  0  0  0  0  0  0  0  0  0  0
   -0.4814   -1.7210   -0.0885 C   0  0  0  0  0  0  0  0  0  0  0  0
    1.7388   -0.7743   -0.1716 C   0  0  0  0  0  0  0  0  0  0  0  0
    0.8812   -1.8550   -0.3709 C   0  0  0  0  0  0  0  0  0  0  0  0
   -3.2456    0.1127   -0.4897 C   0  0  0  0  0  0  0  0  0  0  0  0
    2.2435    2.3175   -0.5548 C   0  0  0  0  0  0  0  0  0  0  0  0
   -3.9225    1.2680   -0.5363 C   0  0  0  0  0  0  0  0  0  0  0  0
    3.6470   -0.1669   -0.3029 H   0  0  0  0  0  0  0  0  0  0  0  0
   -2.5880    0.3402    1.4984 H   0  0  0  0  0  0  0  0  0  0  0  0
   -2.8429   -1.3290    0.9755 H   0  0  0  0  0  0  0  0  0  0  0  0
   -0.4848    1.4671    0.9538 H   0  0  0  0  0  0  0  0  0  0  0  0
   -1.1163   -2.5198   -0.2429 H   0  0  0  0  0  0  0  0  0  0  0  0
    1.2509   -2.7509   -0.7255 H   0  0  0  0  0  0  0  0  0  0  0  0
   -3.2602   -0.4886   -1.3282 H   0  0  0  0  0  0  0  0  0  0  0  0
    2.8952    3.1306   -0.3117 H   0  0  0  0  0  0  0  0  0  0  0  0
    1.2940    2.7017   -0.8644 H   0  0  0  0  0  0  0  0  0  0  0  0
    2.6717    1.7425   -1.3491 H   0  0  0  0  0  0  0  0  0  0  0  0
   -3.9305    1.8948    0.2835 H   0  0  0  0  0  0  0  0  0  0  0  0
   -4.4360    1.5310   -1.3919 H   0  0  0  0  0  0  0  0  0  0  0  0
  1  6  1  0  0  0  0
  1 11  1  0  0  0  0
  2  8  1  0  0  0  0
  2 13  1  0  0  0  0
  3  4  1  0  0  0  0
  3  5  2  0  0  0  0
  3  7  1  0  0  0  0
  4 10  1  0  0  0  0
  4 14  1  0  0  0  0
  4 15  1  0  0  0  0
  5  6  1  0  0  0  0
  5 16  1  0  0  0  0
  6  8  2  0  0  0  0
  7  9  2  0  0  0  0
  7 17  1  0  0  0  0
  8  9  1  0  0  0  0
  9 18  1  0  0  0  0
 10 12  2  0  0  0  0
 10 19  1  0  0  0  0
 11 20  1  0  0  0  0
 11 21  1  0  0  0  0
 11 22  1  0  0  0  0
 12 23  1  0  0  0  0
 12 24  1  0  0  0  0
M  END
>  <PUBCHEM_COMPOUND_CID>
3314

>  <PUBCHEM_CONFORMER_RMSD>
0.6

>  <PUBCHEM_CONFORMER_DIVERSEORDER>
1
7
6
2
8
5
9
3
4

>  <PUBCHEM_MMFF94_PARTIAL_CHARGES>
19
1 -0.36
10 -0.29
11 0.28
12 -0.3
15 0.15
16 0.15
17 0.15
18 0.15
2 -0.53
22 0.45
23 0.15
24 0.15
3 -0.14
4 0.28
5 -0.15
6 0.08
7 -0.15
8 0.08
9 -0.15

>  <PUBCHEM_EFFECTIVE_ROTOR_COUNT>
3

>  <PUBCHEM_PHARMACOPHORE_FEATURES>
4
1 1 acceptor
1 12 hydrophobe
1 2 donor
6 3 5 6 7 8 9 rings

>  <PUBCHEM_HEAVY_ATOM_COUNT>
12

>  <PUBCHEM_ATOM_DEF_STEREO_COUNT>
0

>  <PUBCHEM_ATOM_UDEF_STEREO_COUNT>
0

>  <PUBCHEM_BOND_DEF_STEREO_COUNT>
0

>  <PUBCHEM_BOND_UDEF_STEREO_COUNT>
0

>  <PUBCHEM_ISOTOPIC_ATOM_COUNT>
0

>  <PUBCHEM_COMPONENT_COUNT>
1

>  <PUBCHEM_CACTVS_TAUTO_COUNT>
3

>  <PUBCHEM_CONFORMER_ID>
00000CF200000001

>  <PUBCHEM_MMFF94_ENERGY>
35.5333

>  <PUBCHEM_FEATURE_SELFOVERLAP>
20.297

>  <PUBCHEM_SHAPE_FINGERPRINT>
10149128 76 18337389443461656621
10608611 8 18334857225544458337
11206711 2 18196667197755345276
12932764 1 17822010895982825227
13380535 21 18124049067588474250
13380536 305 18410294692102672318
13922767 16 18411693262403359352
14325111 11 18411698824639208651
14415576 193 18411135818914762949
14648413 74 18334581264783380107
14897335 6 18199180861978184152
14911166 2 18341620274069223390
14993402 34 18271250426248514014
15219456 202 18335425694382960795
15279308 100 18408609183779575958
16945 1 18341061713329765850
18186145 218 18343310262095515161
20201158 50 18339642222633464815
20233049 118 18115027390209799772
20606313 2 18339077069208690583
20653085 51 18407761439235382521
21040471 1 18055073417765351322
21130352 189 18335420140768837252
21524375 3 18265891556465708673
21947302 44 18335697230768457553
23402655 69 18198613334143792805
23559900 14 17699588123842943452
25 1 18336548192712757975
2748010 2 18198071467509626530
3060560 45 18199461082814265687
3071541 158 18336553733125559524

>  <PUBCHEM_SHAPE_MULTIPOLES>
235.22
5.24
2.13
0.81
3.94
0.52
-0.02
2.23
1.08
-1.36
0.38
0.13
0.07
0.33

>  <PUBCHEM_SHAPE_SELFOVERLAP>
481.034

>  <PUBCHEM_SHAPE_VOLUME>
136.6

>  <PUBCHEM_COORDINATE_TYPE>
2
5
10

>  <Energy>
41.1365

$$$$
