10635
 OpenBabel06012612503D

 51 54  0  0  1  0  0  0  0  0999 V2000
   -5.1945   -1.1452   -0.0174 O   0  0  0  0  0  0  0  0  0  0  0  0
    5.6729   -0.3016    0.3627 O   0  0  0  0  0  0  0  0  0  0  0  0
   -0.6335    0.8072    0.1694 C   0  0  2  0  0  0  0  0  0  0  0  0
    0.1759   -0.4294   -0.3330 C   0  0  1  0  0  0  0  0  0  0  0  0
   -2.0645    0.7066   -0.3718 C   0  0  1  0  0  0  0  0  0  0  0  0
   -2.7887   -0.5735    0.0918 C   0  0  2  0  0  0  0  0  0  0  0  0
    1.6812   -0.3879    0.1275 C   0  0  2  0  0  0  0  0  0  0  0  0
    2.2991    0.9794   -0.3067 C   0  0  1  0  0  0  0  0  0  0  0  0
   -0.5502   -1.7671   -0.0191 C   0  0  0  0  0  0  0  0  0  0  0  0
   -2.0232   -1.7809   -0.4666 C   0  0  0  0  0  0  0  0  0  0  0  0
    0.0364    2.1139   -0.2722 C   0  0  0  0  0  0  0  0  0  0  0  0
   -3.0619    1.8159   -0.0497 C   0  0  0  0  0  0  0  0  0  0  0  0
   -4.1673   -0.3291   -0.5512 C   0  0  2  0  0  0  0  0  0  0  0  0
    1.4900    2.1892    0.1789 C   0  0  0  0  0  0  0  0  0  0  0  0
   -4.4356    1.1695   -0.3092 C   0  0  0  0  0  0  0  0  0  0  0  0
    2.4790   -1.5379   -0.5669 C   0  0  0  0  0  0  0  0  0  0  0  0
   -2.9321   -0.7158    1.6284 C   0  0  0  0  0  0  0  0  0  0  0  0
    1.7911   -0.5847    1.6633 C   0  0  0  0  0  0  0  0  0  0  0  0
    3.7665    1.1236    0.1224 C   0  0  0  0  0  0  0  0  0  0  0  0
    3.9102   -1.1973   -0.9832 C   0  0  0  0  0  0  0  0  0  0  0  0
    4.5402   -0.1557   -0.0967 C   0  0  0  0  0  0  0  0  0  0  0  0
   -4.9892   -2.0774   -0.1897 H   0  0  0  0  0  0  0  0  0  0  0  0
   -0.6580    0.8135    1.2391 H   0  0  0  0  0  0  0  0  0  0  0  0
    0.2149   -0.3742   -1.4008 H   0  0  0  0  0  0  0  0  0  0  0  0
   -1.8352    0.7520   -1.4160 H   0  0  0  0  0  0  0  0  0  0  0  0
    2.2592    0.9706   -1.3760 H   0  0  0  0  0  0  0  0  0  0  0  0
   -0.5148   -1.9327    1.0374 H   0  0  0  0  0  0  0  0  0  0  0  0
   -0.0461   -2.5367   -0.5654 H   0  0  0  0  0  0  0  0  0  0  0  0
   -2.0627   -1.7543   -1.5355 H   0  0  0  0  0  0  0  0  0  0  0  0
   -2.4809   -2.6727   -0.0922 H   0  0  0  0  0  0  0  0  0  0  0  0
   -0.5000    2.9375    0.1507 H   0  0  0  0  0  0  0  0  0  0  0  0
    0.0192    2.1499   -1.3415 H   0  0  0  0  0  0  0  0  0  0  0  0
   -2.9118    2.6599   -0.6899 H   0  0  0  0  0  0  0  0  0  0  0  0
   -2.9616    2.1818    0.9508 H   0  0  0  0  0  0  0  0  0  0  0  0
   -4.1624   -0.5881   -1.5893 H   0  0  0  0  0  0  0  0  0  0  0  0
    1.9296    3.0813   -0.2159 H   0  0  0  0  0  0  0  0  0  0  0  0
    1.5070    2.1938    1.2487 H   0  0  0  0  0  0  0  0  0  0  0  0
   -4.8949    1.6078   -1.1705 H   0  0  0  0  0  0  0  0  0  0  0  0
   -5.0987    1.3182    0.5172 H   0  0  0  0  0  0  0  0  0  0  0  0
    1.9412   -1.8263   -1.4458 H   0  0  0  0  0  0  0  0  0  0  0  0
    2.5658   -2.3142    0.1643 H   0  0  0  0  0  0  0  0  0  0  0  0
   -1.9688   -0.8850    2.0624 H   0  0  0  0  0  0  0  0  0  0  0  0
   -3.5740   -1.5423    1.8517 H   0  0  0  0  0  0  0  0  0  0  0  0
   -3.3525    0.1815    2.0321 H   0  0  0  0  0  0  0  0  0  0  0  0
    1.2512    0.1928    2.1621 H   0  0  0  0  0  0  0  0  0  0  0  0
    2.8200   -0.5481    1.9548 H   0  0  0  0  0  0  0  0  0  0  0  0
    1.3780   -1.5346    1.9316 H   0  0  0  0  0  0  0  0  0  0  0  0
    3.8009    1.3762    1.1616 H   0  0  0  0  0  0  0  0  0  0  0  0
    4.2148    1.8912   -0.4733 H   0  0  0  0  0  0  0  0  0  0  0  0
    3.8962   -0.8290   -1.9877 H   0  0  0  0  0  0  0  0  0  0  0  0
    4.4932   -2.0904   -0.8977 H   0  0  0  0  0  0  0  0  0  0  0  0
  1 13  1  0  0  0  0
  1 22  1  0  0  0  0
  2 21  2  0  0  0  0
  3  4  1  0  0  0  0
  3  5  1  0  0  0  0
  3 11  1  0  0  0  0
  3 23  1  1  0  0  0
  4  7  1  0  0  0  0
  4  9  1  0  0  0  0
  4 24  1  6  0  0  0
  5  6  1  0  0  0  0
  5 12  1  0  0  0  0
  5 25  1  6  0  0  0
  6 10  1  0  0  0  0
  6 13  1  0  0  0  0
  6 17  1  1  0  0  0
  7  8  1  0  0  0  0
  7 16  1  0  0  0  0
  7 18  1  1  0  0  0
  8 14  1  0  0  0  0
  8 19  1  0  0  0  0
  8 26  1  6  0  0  0
  9 10  1  0  0  0  0
  9 27  1  0  0  0  0
  9 28  1  0  0  0  0
 10 29  1  0  0  0  0
 10 30  1  0  0  0  0
 11 14  1  0  0  0  0
 11 31  1  0  0  0  0
 11 32  1  0  0  0  0
 12 15  1  0  0  0  0
 12 33  1  0  0  0  0
 12 34  1  0  0  0  0
 13 15  1  0  0  0  0
 13 35  1  6  0  0  0
 14 36  1  0  0  0  0
 14 37  1  0  0  0  0
 15 38  1  0  0  0  0
 15 39  1  0  0  0  0
 16 20  1  0  0  0  0
 16 40  1  0  0  0  0
 16 41  1  0  0  0  0
 17 42  1  0  0  0  0
 17 43  1  0  0  0  0
 17 44  1  0  0  0  0
 18 45  1  0  0  0  0
 18 46  1  0  0  0  0
 18 47  1  0  0  0  0
 19 21  1  0  0  0  0
 19 48  1  0  0  0  0
 19 49  1  0  0  0  0
 20 21  1  0  0  0  0
 20 50  1  0  0  0  0
 20 51  1  0  0  0  0
M  END
>  <PUBCHEM_COMPOUND_CID>
10635

>  <PUBCHEM_CONFORMER_RMSD>
0.6

>  <PUBCHEM_CONFORMER_DIVERSEORDER>
1

>  <PUBCHEM_MMFF94_PARTIAL_CHARGES>
7
1 -0.68
13 0.28
19 0.06
2 -0.57
20 0.06
21 0.45
51 0.4

>  <PUBCHEM_EFFECTIVE_ROTOR_COUNT>
2

>  <PUBCHEM_PHARMACOPHORE_FEATURES>
7
1 1 acceptor
1 1 donor
1 2 acceptor
5 5 6 12 13 15 rings
6 3 4 5 6 9 10 rings
6 3 4 7 8 11 14 rings
6 7 8 16 19 20 21 rings

>  <PUBCHEM_HEAVY_ATOM_COUNT>
21

>  <PUBCHEM_ATOM_DEF_STEREO_COUNT>
7

>  <PUBCHEM_ATOM_UDEF_STEREO_COUNT>
0

>  <PUBCHEM_BOND_DEF_STEREO_COUNT>
0

>  <PUBCHEM_BOND_UDEF_STEREO_COUNT>
0

>  <PUBCHEM_ISOTOPIC_ATOM_COUNT>
0

>  <PUBCHEM_COMPONENT_COUNT>
1

>  <PUBCHEM_CACTVS_TAUTO_COUNT>
3

>  <PUBCHEM_CONFORMER_ID>
0000298B00000001

>  <PUBCHEM_MMFF94_ENERGY>
78.3988

>  <PUBCHEM_FEATURE_SELFOVERLAP>
35.616

>  <PUBCHEM_SHAPE_FINGERPRINT>
10366900 7 17603302669966965849
10498660 4 18335698287198784117
10967382 1 18411699885095230166
11132069 177 18413386544865064360
11578080 2 16699758231975446539
12011746 2 18335697230831813389
12236239 1 17749105574232289682
12403259 226 18341045341531702733
12788726 201 18194396702113233313
13140716 1 18196094566913912378
13221675 6 18408041831379187506
13224815 77 18409446977164145203
13675066 3 18335704987358211328
13862211 1 18410569591558520254
14115302 16 17531254984376528014
14790565 3 17404025825319202641
15099037 51 18410572877408669621
15196674 1 18411138038932833021
15309172 13 18343309171232091115
15375358 24 18341894073944468854
15536298 74 18342737437896437228
15788980 27 18408042905490296102
15848702 151 17917721162334441958
1601671 61 18410292467388916204
16752209 62 18337947905216523089
16945 1 18267030641953960829
17349148 13 18131345323697392087
17802600 8 18410854386560573621
17804303 29 18411138047728573853
18186145 218 18186514389421356981
19141452 34 18201720682151319191
19591789 44 18338797814619516558
19862831 5 18333734602191169572
200 152 17989204841245972769
20028762 73 18130222787278450935
20510252 161 18272089370784513185
20645477 70 18337669818710572316
21029758 11 18343862203884603337
21033648 29 17703774904204450401
21267235 1 18410863169721318622
21279426 13 18194683665856869623
21421861 104 17825099321213882274
21452121 103 18271794783626277288
221490 88 18264495159507981882
23402539 116 18412537700545492846
23493267 7 18041000622222569979
23557571 272 18272377438751982692
23559900 14 18272926159199742640
2748010 2 18409726248907341013
3004659 81 18260833670794048862
335352 9 18410854339273872180
34934 24 18410288095375790590
350125 39 18411704292444325897
4214541 1 18411699872442683685
474 4 17386574703396207204
4921388 177 15936703643736478297
5104073 3 18411138051886313928
542803 24 14345794933242044782
633830 44 17749107837643001612
69090 78 18343863333387051927
7364860 26 18199185264309554744
9709674 26 18337955709235383983

>  <PUBCHEM_SHAPE_MULTIPOLES>
420.43
9.61
2.08
1
1.49
0.52
0.36
-1.03
-0.5
-0.32
-0.19
0.01
-0.25
0.4

>  <PUBCHEM_SHAPE_SELFOVERLAP>
895.147

>  <PUBCHEM_SHAPE_VOLUME>
231.7

>  <PUBCHEM_COORDINATE_TYPE>
2
5
10

>  <Energy>
78.4618

$$$$
