6025
 OpenBabel06012612503D

 36 38  0  0  0  0  0  0  0  0999 V2000
    0.6263    0.3030   -0.0016 C   0  0  0  0  0  0  0  0  0  0  0  0
    2.0885    0.5216   -0.0001 C   0  0  0  0  0  0  0  0  0  0  0  0
    0.0353   -1.0526   -0.0002 C   0  0  0  0  0  0  0  0  0  0  0  0
   -0.1575    1.4031   -0.0011 C   0  0  0  0  0  0  0  0  0  0  0  0
   -1.6254    1.3946   -0.0016 C   0  0  0  0  0  0  0  0  0  0  0  0
    2.7919    0.6089   -1.2078 C   0  0  0  0  0  0  0  0  0  0  0  0
   -0.2531   -1.6948    1.2100 C   0  0  0  0  0  0  0  0  0  0  0  0
    2.7867    0.6220    1.2097 C   0  0  0  0  0  0  0  0  0  0  0  0
   -0.2455   -1.7029   -1.2078 C   0  0  0  0  0  0  0  0  0  0  0  0
   -2.3291    1.3817   -1.2106 C   0  0  0  0  0  0  0  0  0  0  0  0
   -2.3310    1.3759    1.2062 C   0  0  0  0  0  0  0  0  0  0  0  0
    4.1769    0.7867   -1.2046 C   0  0  0  0  0  0  0  0  0  0  0  0
   -0.8226   -2.9693    1.2116 C   0  0  0  0  0  0  0  0  0  0  0  0
    4.1717    0.7997    1.2107 C   0  0  0  0  0  0  0  0  0  0  0  0
   -0.8148   -2.9769   -1.2043 C   0  0  0  0  0  0  0  0  0  0  0  0
    4.8658    0.8802    0.0041 C   0  0  0  0  0  0  0  0  0  0  0  0
   -1.1040   -3.6084    0.0048 C   0  0  0  0  0  0  0  0  0  0  0  0
   -3.7250    1.3470   -1.2109 C   0  0  0  0  0  0  0  0  0  0  0  0
   -3.7269    1.3410    1.2042 C   0  0  0  0  0  0  0  0  0  0  0  0
   -4.4230    1.3264   -0.0040 C   0  0  0  0  0  0  0  0  0  0  0  0
    0.3126    2.3218   -0.0004 H   0  0  0  0  0  0  0  0  0  0  0  0
    2.2845    0.5415   -2.1040 H   0  0  0  0  0  0  0  0  0  0  0  0
   -0.0438   -1.2241    2.1043 H   0  0  0  0  0  0  0  0  0  0  0  0
    2.2755    0.5643    2.1043 H   0  0  0  0  0  0  0  0  0  0  0  0
   -0.0307   -1.2383   -2.1039 H   0  0  0  0  0  0  0  0  0  0  0  0
   -1.8148    1.3980   -2.1052 H   0  0  0  0  0  0  0  0  0  0  0  0
   -1.8181    1.3880    2.1017 H   0  0  0  0  0  0  0  0  0  0  0  0
    4.6909    0.8489   -2.0973 H   0  0  0  0  0  0  0  0  0  0  0  0
   -1.0353   -3.4383    2.1059 H   0  0  0  0  0  0  0  0  0  0  0  0
    4.6818    0.8715    2.1049 H   0  0  0  0  0  0  0  0  0  0  0  0
   -1.0219   -3.4519   -2.0968 H   0  0  0  0  0  0  0  0  0  0  0  0
    5.8897    1.0091    0.0056 H   0  0  0  0  0  0  0  0  0  0  0  0
   -1.5267   -4.5498    0.0064 H   0  0  0  0  0  0  0  0  0  0  0  0
   -4.2404    1.3366   -2.1050 H   0  0  0  0  0  0  0  0  0  0  0  0
   -4.2437    1.3260    2.0973 H   0  0  0  0  0  0  0  0  0  0  0  0
   -5.4546    1.3004   -0.0049 H   0  0  0  0  0  0  0  0  0  0  0  0
  1  2  1  0  0  0  0
  1  3  1  0  0  0  0
  1  4  2  0  0  0  0
  2  6  2  0  0  0  0
  2  8  1  0  0  0  0
  3  7  2  0  0  0  0
  3  9  1  0  0  0  0
  4  5  1  0  0  0  0
  4 21  1  0  0  0  0
  5 10  2  0  0  0  0
  5 11  1  0  0  0  0
  6 12  1  0  0  0  0
  6 22  1  0  0  0  0
  7 13  1  0  0  0  0
  7 23  1  0  0  0  0
  8 14  2  0  0  0  0
  8 24  1  0  0  0  0
  9 15  2  0  0  0  0
  9 25  1  0  0  0  0
 10 18  1  0  0  0  0
 10 26  1  0  0  0  0
 11 19  2  0  0  0  0
 11 27  1  0  0  0  0
 12 16  2  0  0  0  0
 12 28  1  0  0  0  0
 13 17  2  0  0  0  0
 13 29  1  0  0  0  0
 14 16  1  0  0  0  0
 14 30  1  0  0  0  0
 15 17  1  0  0  0  0
 15 31  1  0  0  0  0
 16 32  1  0  0  0  0
 17 33  1  0  0  0  0
 18 20  2  0  0  0  0
 18 34  1  0  0  0  0
 19 20  1  0  0  0  0
 19 35  1  0  0  0  0
 20 36  1  0  0  0  0
M  END
>  <PUBCHEM_COMPOUND_CID>
6025

>  <PUBCHEM_CONFORMER_RMSD>
0.6

>  <PUBCHEM_CONFORMER_DIVERSEORDER>
1
3
2

>  <PUBCHEM_MMFF94_PARTIAL_CHARGES>
36
1 -0.06
10 -0.15
11 -0.15
12 -0.15
13 -0.15
14 -0.15
15 -0.15
16 -0.15
17 -0.15
18 -0.15
19 -0.15
2 0.03
20 -0.15
21 0.15
22 0.15
23 0.15
24 0.15
25 0.15
26 0.15
27 0.15
28 0.15
29 0.15
3 0.03
30 0.15
31 0.15
32 0.15
33 0.15
34 0.15
35 0.15
36 0.15
4 -0.18
5 0.03
6 -0.15
7 -0.15
8 -0.15
9 -0.15

>  <PUBCHEM_EFFECTIVE_ROTOR_COUNT>
3

>  <PUBCHEM_PHARMACOPHORE_FEATURES>
3
6 2 6 8 12 14 16 rings
6 3 7 9 13 15 17 rings
6 5 10 11 18 19 20 rings

>  <PUBCHEM_HEAVY_ATOM_COUNT>
20

>  <PUBCHEM_ATOM_DEF_STEREO_COUNT>
0

>  <PUBCHEM_ATOM_UDEF_STEREO_COUNT>
0

>  <PUBCHEM_BOND_DEF_STEREO_COUNT>
0

>  <PUBCHEM_BOND_UDEF_STEREO_COUNT>
0

>  <PUBCHEM_ISOTOPIC_ATOM_COUNT>
0

>  <PUBCHEM_COMPONENT_COUNT>
1

>  <PUBCHEM_CACTVS_TAUTO_COUNT>
1

>  <PUBCHEM_CONFORMER_ID>
0000178900000001

>  <PUBCHEM_MMFF94_ENERGY>
72.4066

>  <PUBCHEM_FEATURE_SELFOVERLAP>
15.223

>  <PUBCHEM_SHAPE_FINGERPRINT>
10291535 26 17774998050790514648
11578080 2 17200229549539233208
121448 382 18342443859923237853
12788726 201 18047757288679458314
13052359 8 18335979865302286443
13140716 1 18266738163883428992
13149001 5 18200584933768740648
133893 2 17831303804751149177
13538477 17 18113900507035202864
13583140 156 16588019138731697500
13681431 1 17402607446464848415
14468879 13 16483276448776772736
15309172 13 18336266760406476729
16752209 62 18263915708343424642
17138139 8 17839421740266424743
173720 79 18260815012570040963
17980427 23 16226056574321425333
18186145 218 17988921133103085200
200 152 13686297976562430172
20197701 30 18336537227255082479
204376 136 18335139765346036873
20567600 347 18338800009732809775
20600515 1 16960942902774318786
20602899 9 16271929328518372734
20645476 183 18186800300756367012
21033648 29 18263340556884404624
21344244 181 17917439713391799511
21524375 3 18410571743231302722
22182313 1 18198087865673910679
22224240 67 18411987962249337737
22620623 9 18127980899958387070
22907989 373 18124607623737546268
22956985 138 17825673240213707963
23227448 37 18043540610348140652
23352939 185 13614514194815067545
23419403 2 17339052582193171879
23557571 272 18056755662272031544
23558518 356 17827359092323377000
23559900 14 16444761419433150594
23598288 3 18120946250475962014
3729539 64 17906192667497056046
404807 14 14973796174231072502
4340502 62 18339371764896728145
458136 41 18268160751224022731
474229 33 18335422378868668219
5845 1 11386366993746566415
59755656 520 18341615893049327636
633830 44 17917433068750304949
6438718 38 18267590276293051278
6669772 16 18338521829054622222
7495541 125 11959143364675533853
7615 1 17750791254644235108
81228 2 18121211240893391067
81539 233 18190174594815710037
9925002 15 17898582131102457093

>  <PUBCHEM_SHAPE_MULTIPOLES>
411.59
7.75
3.22
1.49
4.48
4.33
0
-6.58
0
-2.54
0
-0.02
0.08
0.01

>  <PUBCHEM_SHAPE_SELFOVERLAP>
905.016

>  <PUBCHEM_SHAPE_VOLUME>
208.2

>  <PUBCHEM_COORDINATE_TYPE>
2
5
10

>  <Energy>
70.9382

$$$$
