91653
 OpenBabel06012612503D

 23 24  0  0  0  0  0  0  0  0999 V2000
   -0.4887    2.8370   -0.0022 Cl  0  0  0  0  0  0  0  0  0  0  0  0
   -3.9239   -2.3678    0.0003 Cl  0  0  0  0  0  0  0  0  0  0  0  0
    4.8307   -0.4951    0.0271 O   0  0  0  0  0  0  0  0  0  0  0  0
    0.6959   -0.0509    0.0008 C   0  0  0  0  0  0  0  0  0  0  0  0
   -0.7626    0.1043    0.0039 C   0  0  0  0  0  0  0  0  0  0  0  0
    1.4018   -0.1293   -1.2108 C   0  0  0  0  0  0  0  0  0  0  0  0
    1.4101   -0.1302    1.2061 C   0  0  0  0  0  0  0  0  0  0  0  0
   -1.3942    1.3625    0.0020 C   0  0  0  0  0  0  0  0  0  0  0  0
   -1.5693   -1.0488    0.0045 C   0  0  0  0  0  0  0  0  0  0  0  0
    2.7903   -0.2774   -1.2189 C   0  0  0  0  0  0  0  0  0  0  0  0
    2.7977   -0.2786    1.1994 C   0  0  0  0  0  0  0  0  0  0  0  0
   -2.9601   -0.9433    0.0028 C   0  0  0  0  0  0  0  0  0  0  0  0
   -2.7895    1.4608    0.0013 C   0  0  0  0  0  0  0  0  0  0  0  0
    3.4757   -0.3506   -0.0112 C   0  0  0  0  0  0  0  0  0  0  0  0
   -3.5736    0.3064    0.0015 C   0  0  0  0  0  0  0  0  0  0  0  0
    5.3190   -0.5469   -0.7710 H   0  0  0  0  0  0  0  0  0  0  0  0
    0.8889   -0.0769   -2.1047 H   0  0  0  0  0  0  0  0  0  0  0  0
    0.9052   -0.0784    2.1047 H   0  0  0  0  0  0  0  0  0  0  0  0
   -1.1275   -1.9815    0.0061 H   0  0  0  0  0  0  0  0  0  0  0  0
    3.3030   -0.3321   -2.1128 H   0  0  0  0  0  0  0  0  0  0  0  0
    3.3176   -0.3347    2.0891 H   0  0  0  0  0  0  0  0  0  0  0  0
   -3.2402    2.3892    0.0007 H   0  0  0  0  0  0  0  0  0  0  0  0
   -4.6031    0.3788    0.0007 H   0  0  0  0  0  0  0  0  0  0  0  0
  1  8  1  0  0  0  0
  2 12  1  0  0  0  0
  3 14  1  0  0  0  0
  3 16  1  0  0  0  0
  4  5  1  0  0  0  0
  4  6  2  0  0  0  0
  4  7  1  0  0  0  0
  5  8  2  0  0  0  0
  5  9  1  0  0  0  0
  6 10  1  0  0  0  0
  6 17  1  0  0  0  0
  7 11  2  0  0  0  0
  7 18  1  0  0  0  0
  8 13  1  0  0  0  0
  9 12  2  0  0  0  0
  9 19  1  0  0  0  0
 10 14  2  0  0  0  0
 10 20  1  0  0  0  0
 11 14  1  0  0  0  0
 11 21  1  0  0  0  0
 12 15  1  0  0  0  0
 13 15  2  0  0  0  0
 13 22  1  0  0  0  0
 15 23  1  0  0  0  0
M  END
>  <PUBCHEM_COMPOUND_CID>
91653

>  <PUBCHEM_CONFORMER_RMSD>
0.4

>  <PUBCHEM_CONFORMER_DIVERSEORDER>
1
2
3

>  <PUBCHEM_MMFF94_PARTIAL_CHARGES>
21
1 -0.18
10 -0.15
11 -0.15
12 0.18
13 -0.15
14 0.08
15 -0.15
16 0.15
17 0.15
18 0.15
19 0.15
2 -0.18
20 0.15
21 0.15
22 0.15
23 0.45
3 -0.53
6 -0.15
7 -0.15
8 0.18
9 -0.15

>  <PUBCHEM_EFFECTIVE_ROTOR_COUNT>
1

>  <PUBCHEM_PHARMACOPHORE_FEATURES>
3
1 3 donor
6 4 6 7 10 11 14 rings
6 5 8 9 12 13 15 rings

>  <PUBCHEM_HEAVY_ATOM_COUNT>
15

>  <PUBCHEM_ATOM_DEF_STEREO_COUNT>
0

>  <PUBCHEM_ATOM_UDEF_STEREO_COUNT>
0

>  <PUBCHEM_BOND_DEF_STEREO_COUNT>
0

>  <PUBCHEM_BOND_UDEF_STEREO_COUNT>
0

>  <PUBCHEM_ISOTOPIC_ATOM_COUNT>
0

>  <PUBCHEM_COMPONENT_COUNT>
1

>  <PUBCHEM_CACTVS_TAUTO_COUNT>
2

>  <PUBCHEM_CONFORMER_ID>
0001660500000001

>  <PUBCHEM_MMFF94_ENERGY>
43.1336

>  <PUBCHEM_FEATURE_SELFOVERLAP>
15.223

>  <PUBCHEM_SHAPE_FINGERPRINT>
10989021 7 18267303312696139997
12032990 46 18341614853809809651
12236239 1 17676489423438492371
13103583 49 17681877125996244131
13140716 1 18339930432651645977
13214271 11 18201996620967822317
13296908 3 18342173405637468715
13538477 17 18187640254557023921
13581323 91 18409726236217403362
14115302 16 17604149349776455683
15219456 202 17703783734704657216
15375462 189 18040438793466654937
15653759 3 18202280290725419226
16752209 62 18261097600555477291
16945 1 18338516340064746917
17844478 74 17632578236245031944
18175812 5 17846774117853090348
18186145 218 12107777476346759759
19049666 15 17558276427310821286
19422 9 18113338608916271890
19868273 325 18409450280273856525
200 152 16950279611290575015
20279233 1 17775567520150739519
20510252 161 18198624328632543969
20645477 70 17906444782314629631
20871999 31 18334288778074940559
21639500 275 15936705859770752374
22112679 90 18187943762821763733
22213442 358 18341050821545722309
2297311 6 18342470222580135348
23175994 123 16845296016609831488
232386 152 18335142024572538319
23402539 116 18409162208200862758
23532345 42 18341603879973105376
23557571 272 18272934881977432372
23559900 14 18198905816984409598
2748010 2 18268696368179989817
474 4 17241902084584651820
57096353 35 17749399203565716694
5902787 121 18337389452204403217
6442390 28 17552097107945224593
7364860 26 17982733274993454129
77492 1 17676490522971219172
81228 2 18269848518768807209

>  <PUBCHEM_SHAPE_MULTIPOLES>
306.56
7.21
2.05
1.01
2.49
0.99
0
-3.46
0
-2.37
0
0.82
-0.09
0

>  <PUBCHEM_SHAPE_SELFOVERLAP>
649.084

>  <PUBCHEM_SHAPE_VOLUME>
174

>  <PUBCHEM_COORDINATE_TYPE>
2
5
10

>  <Energy>
30.0287

$$$$
