2800
 OpenBabel06012612503D

 58 60  0  0  0  0  0  0  0  0999 V2000
   -1.2971    2.6602   -0.2877 Cl  0  0  0  0  0  0  0  0  0  0  0  0
    3.6482   -0.8749   -0.9908 O   0  0  0  0  0  0  0  0  0  0  0  0
    6.8695    0.4638    0.3696 N   0  3  0  0  0  0  0  0  0  0  0  0
    5.9037   -0.1486   -0.5702 C   0  0  0  0  0  0  0  0  0  0  0  0
    7.1161   -0.4236    1.5240 C   0  0  0  0  0  0  0  0  0  0  0  0
    8.1228    0.8293   -0.3161 C   0  0  0  0  0  0  0  0  0  0  0  0
    4.5285   -0.4294    0.0446 C   0  0  0  0  0  0  0  0  0  0  0  0
    8.0265    0.1694    2.5939 C   0  0  0  0  0  0  0  0  0  0  0  0
    7.9379    1.8070   -1.4755 C   0  0  0  0  0  0  0  0  0  0  0  0
   -0.4102   -0.2634   -0.3600 C   0  0  0  0  0  0  0  0  0  0  0  0
    2.3205   -0.7106   -0.7065 C   0  0  0  0  0  0  0  0  0  0  0  0
   -1.8509   -0.0103   -0.1650 C   0  0  0  0  0  0  0  0  0  0  0  0
    0.1175   -0.4086   -1.6474 C   0  0  0  0  0  0  0  0  0  0  0  0
    0.4263   -0.3774    0.7542 C   0  0  0  0  0  0  0  0  0  0  0  0
    1.4810   -0.6375   -1.8169 C   0  0  0  0  0  0  0  0  0  0  0  0
    1.7874   -0.6120    0.5806 C   0  0  0  0  0  0  0  0  0  0  0  0
   -2.7831   -1.1505   -0.0033 C   0  0  0  0  0  0  0  0  0  0  0  0
   -2.3179    1.2603   -0.1184 C   0  0  0  0  0  0  0  0  0  0  0  0
   -3.7373    1.5936    0.0813 C   0  0  0  0  0  0  0  0  0  0  0  0
   -3.0544   -1.6693    1.2693 C   0  0  0  0  0  0  0  0  0  0  0  0
   -3.3906   -1.7236   -1.1270 C   0  0  0  0  0  0  0  0  0  0  0  0
   -3.9404   -2.7348    1.4160 C   0  0  0  0  0  0  0  0  0  0  0  0
   -4.2767   -2.7892   -0.9768 C   0  0  0  0  0  0  0  0  0  0  0  0
   -4.2484    1.7526    1.3752 C   0  0  0  0  0  0  0  0  0  0  0  0
   -4.5931    1.7065   -1.0205 C   0  0  0  0  0  0  0  0  0  0  0  0
   -4.5549   -3.2930    0.2942 C   0  0  0  0  0  0  0  0  0  0  0  0
   -5.6067    2.0127    1.5626 C   0  0  0  0  0  0  0  0  0  0  0  0
   -5.9502    1.9681   -0.8301 C   0  0  0  0  0  0  0  0  0  0  0  0
   -6.4550    2.1194    0.4607 C   0  0  0  0  0  0  0  0  0  0  0  0
    6.4595    1.3264    0.7277 H   0  0  0  0  0  0  0  0  0  0  0  0
    6.3127   -1.0746   -0.9170 H   0  0  0  0  0  0  0  0  0  0  0  0
    5.7514    0.5563   -1.3606 H   0  0  0  0  0  0  0  0  0  0  0  0
    7.5671   -1.3242    1.1629 H   0  0  0  0  0  0  0  0  0  0  0  0
    6.1668   -0.5887    1.9893 H   0  0  0  0  0  0  0  0  0  0  0  0
    8.5695   -0.0647   -0.6986 H   0  0  0  0  0  0  0  0  0  0  0  0
    8.7379    1.3220    0.4076 H   0  0  0  0  0  0  0  0  0  0  0  0
    4.6167   -1.1882    0.7939 H   0  0  0  0  0  0  0  0  0  0  0  0
    4.1413    0.4601    0.4960 H   0  0  0  0  0  0  0  0  0  0  0  0
    8.9943    0.3541    2.1764 H   0  0  0  0  0  0  0  0  0  0  0  0
    8.1149   -0.5187    3.4085 H   0  0  0  0  0  0  0  0  0  0  0  0
    7.6093    1.0891    2.9476 H   0  0  0  0  0  0  0  0  0  0  0  0
    7.3258    1.3559   -2.2284 H   0  0  0  0  0  0  0  0  0  0  0  0
    8.8929    2.0517   -1.8915 H   0  0  0  0  0  0  0  0  0  0  0  0
    7.4655    2.6983   -1.1185 H   0  0  0  0  0  0  0  0  0  0  0  0
   -0.5024   -0.3461   -2.4701 H   0  0  0  0  0  0  0  0  0  0  0  0
    0.0350   -0.2877    1.7049 H   0  0  0  0  0  0  0  0  0  0  0  0
    1.8702   -0.7530   -2.7657 H   0  0  0  0  0  0  0  0  0  0  0  0
    2.4026   -0.7130    1.4030 H   0  0  0  0  0  0  0  0  0  0  0  0
   -2.5972   -1.2616    2.0998 H   0  0  0  0  0  0  0  0  0  0  0  0
   -3.1818   -1.3563   -2.0686 H   0  0  0  0  0  0  0  0  0  0  0  0
   -4.1423   -3.1116    2.3553 H   0  0  0  0  0  0  0  0  0  0  0  0
   -4.7274   -3.2057   -1.8064 H   0  0  0  0  0  0  0  0  0  0  0  0
   -3.6203    1.6774    2.1906 H   0  0  0  0  0  0  0  0  0  0  0  0
   -4.2193    1.5960   -1.9761 H   0  0  0  0  0  0  0  0  0  0  0  0
   -5.2150   -4.0785    0.4048 H   0  0  0  0  0  0  0  0  0  0  0  0
   -5.9834    2.1261    2.5167 H   0  0  0  0  0  0  0  0  0  0  0  0
   -6.5797    2.0495   -1.6438 H   0  0  0  0  0  0  0  0  0  0  0  0
   -7.4593    2.3109    0.6013 H   0  0  0  0  0  0  0  0  0  0  0  0
  1 18  1  0  0  0  0
  2  7  1  0  0  0  0
  2 11  1  0  0  0  0
  3  4  1  0  0  0  0
  3  5  1  0  0  0  0
  3  6  1  0  0  0  0
  3 30  1  0  0  0  0
  4  7  1  0  0  0  0
  4 31  1  0  0  0  0
  4 32  1  0  0  0  0
  5  8  1  0  0  0  0
  5 33  1  0  0  0  0
  5 34  1  0  0  0  0
  6  9  1  0  0  0  0
  6 35  1  0  0  0  0
  6 36  1  0  0  0  0
  7 37  1  0  0  0  0
  7 38  1  0  0  0  0
  8 39  1  0  0  0  0
  8 40  1  0  0  0  0
  8 41  1  0  0  0  0
  9 42  1  0  0  0  0
  9 43  1  0  0  0  0
  9 44  1  0  0  0  0
 10 12  1  0  0  0  0
 10 13  2  0  0  0  0
 10 14  1  0  0  0  0
 11 15  2  0  0  0  0
 11 16  1  0  0  0  0
 12 17  1  0  0  0  0
 12 18  2  0  0  0  0
 13 15  1  0  0  0  0
 13 45  1  0  0  0  0
 14 16  2  0  0  0  0
 14 46  1  0  0  0  0
 15 47  1  0  0  0  0
 16 48  1  0  0  0  0
 17 20  2  0  0  0  0
 17 21  1  0  0  0  0
 18 19  1  0  0  0  0
 19 24  2  0  0  0  0
 19 25  1  0  0  0  0
 20 22  1  0  0  0  0
 20 49  1  0  0  0  0
 21 23  2  0  0  0  0
 21 50  1  0  0  0  0
 22 26  2  0  0  0  0
 22 51  1  0  0  0  0
 23 26  1  0  0  0  0
 23 52  1  0  0  0  0
 24 27  1  0  0  0  0
 24 53  1  0  0  0  0
 25 28  2  0  0  0  0
 25 54  1  0  0  0  0
 26 55  1  0  0  0  0
 27 29  2  0  0  0  0
 27 56  1  0  0  0  0
 28 29  1  0  0  0  0
 28 57  1  0  0  0  0
 29 58  1  0  0  0  0
M  CHG  1   3   1
M  END
>  <PUBCHEM_COMPOUND_CID>
2800

>  <PUBCHEM_CONFORMER_RMSD>
1

>  <PUBCHEM_CONFORMER_DIVERSEORDER>
1
11
4
12
5
8
13
6
10
3
7
2
9

>  <PUBCHEM_MMFF94_PARTIAL_CHARGES>
41
1 -0.14
10 0.03
11 0.08
12 -0.06
13 -0.15
14 -0.15
15 -0.15
16 -0.15
17 0.03
18 0.11
19 0.03
2 -0.36
20 -0.15
21 -0.15
22 -0.15
23 -0.15
24 -0.15
25 -0.15
26 -0.15
27 -0.15
28 -0.15
29 -0.15
3 -0.81
4 0.27
44 0.15
45 0.15
46 0.15
47 0.15
48 0.15
49 0.15
5 0.27
50 0.15
51 0.15
52 0.15
53 0.15
54 0.15
55 0.15
56 0.15
57 0.15
6 0.27
7 0.28

>  <PUBCHEM_EFFECTIVE_ROTOR_COUNT>
9

>  <PUBCHEM_PHARMACOPHORE_FEATURES>
5
1 2 acceptor
1 3 cation
6 10 11 13 14 15 16 rings
6 17 20 21 22 23 26 rings
6 19 24 25 27 28 29 rings

>  <PUBCHEM_HEAVY_ATOM_COUNT>
29

>  <PUBCHEM_ATOM_DEF_STEREO_COUNT>
0

>  <PUBCHEM_ATOM_UDEF_STEREO_COUNT>
0

>  <PUBCHEM_BOND_DEF_STEREO_COUNT>
0

>  <PUBCHEM_BOND_UDEF_STEREO_COUNT>
1

>  <PUBCHEM_ISOTOPIC_ATOM_COUNT>
0

>  <PUBCHEM_COMPONENT_COUNT>
1

>  <PUBCHEM_CACTVS_TAUTO_COUNT>
1

>  <PUBCHEM_CONFORMER_ID>
00000AF000000001

>  <PUBCHEM_MMFF94_ENERGY>
97.8951

>  <PUBCHEM_FEATURE_SELFOVERLAP>
25.373

>  <PUBCHEM_SHAPE_FINGERPRINT>
10 15 17821734910027254524
10076449 9 17846497071979484367
10291535 26 17989491788812774817
10906281 52 17774169985380256481
11315181 36 17968095373323435527
12035758 1 18268453295091078441
12616971 3 16877954836196311838
13140716 1 18410866481710965397
15183329 4 12751240294721485740
1577012 14 18113338626992732100
16989713 51 17773874388308952278
17980427 23 18113626711196183246
21033648 29 17846486050834686898
21150785 3 14189283864360652520
21236236 1 18409731781120662651
21424621 283 17914064101499987873
21792961 116 17346326968929777414
23559900 14 18343299240924558044
23576562 1 16629943543095836496
249057 25 17823141279835512406
3663271 9 18113335341279297906
4073 2 18410580574180572126
484985 159 17096097995298978315
4938544 92 18413673521737410671
5080951 261 18336247003862818999
5104073 3 18261397797041358768
5364581 5 18269833275924735696
5969126 39 18201431545649427927
6669772 16 18194690268245762815

>  <PUBCHEM_SHAPE_MULTIPOLES>
587.83
21.77
3.01
1.72
50.32
0.81
-0.43
-8.53
-5.44
-7.19
-0.14
1.54
0.08
-0.96

>  <PUBCHEM_SHAPE_SELFOVERLAP>
1243.359

>  <PUBCHEM_SHAPE_VOLUME>
330.2

>  <PUBCHEM_COORDINATE_TYPE>
2
5
10

>  <Energy>
108.734

$$$$
