3032539
 OpenBabel06012612503D

 46 47  0  0  0  0  0  0  0  0999 V2000
   -6.0034   -0.1566    0.2506 O   0  0  0  0  0  0  0  0  0  0  0  0
    6.0016    0.1518    0.2521 O   0  0  0  0  0  0  0  0  0  0  0  0
   -0.4103    0.5419    0.2575 C   0  0  0  0  0  0  0  0  0  0  0  0
    0.4077   -0.5394    0.2569 C   0  0  0  0  0  0  0  0  0  0  0  0
    0.0303    1.9923    0.2855 C   0  0  0  0  0  0  0  0  0  0  0  0
   -0.0308   -1.9912    0.2878 C   0  0  0  0  0  0  0  0  0  0  0  0
   -1.8689    0.3649    0.2419 C   0  0  0  0  0  0  0  0  0  0  0  0
    1.8673   -0.3632    0.2422 C   0  0  0  0  0  0  0  0  0  0  0  0
    0.2279    2.5834   -1.1047 C   0  0  0  0  0  0  0  0  0  0  0  0
   -0.2273   -2.5844   -1.1018 C   0  0  0  0  0  0  0  0  0  0  0  0
   -2.5894    0.2732    1.4383 C   0  0  0  0  0  0  0  0  0  0  0  0
    2.5876   -0.2720    1.4359 C   0  0  0  0  0  0  0  0  0  0  0  0
   -2.5397    0.2803   -0.9770 C   0  0  0  0  0  0  0  0  0  0  0  0
    2.5377   -0.2796   -0.9802 C   0  0  0  0  0  0  0  0  0  0  0  0
   -3.9769    0.1000    1.4013 C   0  0  0  0  0  0  0  0  0  0  0  0
    3.9737   -0.0994    1.4016 C   0  0  0  0  0  0  0  0  0  0  0  0
   -3.9193    0.1051   -1.0103 C   0  0  0  0  0  0  0  0  0  0  0  0
    3.9182   -0.1069   -1.0105 C   0  0  0  0  0  0  0  0  0  0  0  0
   -4.6472    0.0153    0.1784 C   0  0  0  0  0  0  0  0  0  0  0  0
    4.6446   -0.0175    0.1774 C   0  0  0  0  0  0  0  0  0  0  0  0
   -6.6790   -0.2394   -1.0000 C   0  0  0  0  0  0  0  0  0  0  0  0
    6.6791    0.2364   -0.9988 C   0  0  0  0  0  0  0  0  0  0  0  0
    0.9563    2.0568    0.8178 H   0  0  0  0  0  0  0  0  0  0  0  0
   -0.7460    2.5526    0.7633 H   0  0  0  0  0  0  0  0  0  0  0  0
   -0.9566   -2.0563    0.8202 H   0  0  0  0  0  0  0  0  0  0  0  0
    0.7462   -2.5497    0.7667 H   0  0  0  0  0  0  0  0  0  0  0  0
    1.0001    2.0459   -1.6144 H   0  0  0  0  0  0  0  0  0  0  0  0
    0.5071    3.6127   -1.0183 H   0  0  0  0  0  0  0  0  0  0  0  0
   -0.6848    2.5067   -1.6579 H   0  0  0  0  0  0  0  0  0  0  0  0
   -1.0001   -2.0486   -1.6123 H   0  0  0  0  0  0  0  0  0  0  0  0
   -0.5052   -3.6139   -1.0141 H   0  0  0  0  0  0  0  0  0  0  0  0
    0.6854   -2.5072   -1.6549 H   0  0  0  0  0  0  0  0  0  0  0  0
   -2.0989    0.3333    2.3443 H   0  0  0  0  0  0  0  0  0  0  0  0
    2.0966   -0.3320    2.3416 H   0  0  0  0  0  0  0  0  0  0  0  0
   -2.0098    0.3480   -1.8600 H   0  0  0  0  0  0  0  0  0  0  0  0
    2.0079   -0.3461   -1.8633 H   0  0  0  0  0  0  0  0  0  0  0  0
   -4.5090    0.0342    2.2831 H   0  0  0  0  0  0  0  0  0  0  0  0
    4.5048   -0.0320    2.2839 H   0  0  0  0  0  0  0  0  0  0  0  0
   -4.4072    0.0411   -1.9174 H   0  0  0  0  0  0  0  0  0  0  0  0
    4.4076   -0.0447   -1.9169 H   0  0  0  0  0  0  0  0  0  0  0  0
   -7.7272   -0.3725   -0.8310 H   0  0  0  0  0  0  0  0  0  0  0  0
   -6.2991   -1.0708   -1.5563 H   0  0  0  0  0  0  0  0  0  0  0  0
   -6.5186    0.6627   -1.5526 H   0  0  0  0  0  0  0  0  0  0  0  0
    7.7274    0.3672   -0.8285 H   0  0  0  0  0  0  0  0  0  0  0  0
    6.3012    1.0697   -1.5535 H   0  0  0  0  0  0  0  0  0  0  0  0
    6.5175   -0.6641   -1.5536 H   0  0  0  0  0  0  0  0  0  0  0  0
  1 19  1  0  0  0  0
  1 21  1  0  0  0  0
  2 20  1  0  0  0  0
  2 22  1  0  0  0  0
  3  4  2  0  0  0  0
  3  5  1  0  0  0  0
  3  7  1  0  0  0  0
  4  6  1  0  0  0  0
  4  8  1  0  0  0  0
  5  9  1  0  0  0  0
  5 23  1  0  0  0  0
  5 24  1  0  0  0  0
  6 10  1  0  0  0  0
  6 25  1  0  0  0  0
  6 26  1  0  0  0  0
  7 11  2  0  0  0  0
  7 13  1  0  0  0  0
  8 12  2  0  0  0  0
  8 14  1  0  0  0  0
  9 27  1  0  0  0  0
  9 28  1  0  0  0  0
  9 29  1  0  0  0  0
 10 30  1  0  0  0  0
 10 31  1  0  0  0  0
 10 32  1  0  0  0  0
 11 15  1  0  0  0  0
 11 33  1  0  0  0  0
 12 16  1  0  0  0  0
 12 34  1  0  0  0  0
 13 17  2  0  0  0  0
 13 35  1  0  0  0  0
 14 18  2  0  0  0  0
 14 36  1  0  0  0  0
 15 19  2  0  0  0  0
 15 37  1  0  0  0  0
 16 20  2  0  0  0  0
 16 38  1  0  0  0  0
 17 19  1  0  0  0  0
 17 39  1  0  0  0  0
 18 20  1  0  0  0  0
 18 40  1  0  0  0  0
 21 41  1  0  0  0  0
 21 42  1  0  0  0  0
 21 43  1  0  0  0  0
 22 44  1  0  0  0  0
 22 45  1  0  0  0  0
 22 46  1  0  0  0  0
M  END
>  <PUBCHEM_COMPOUND_CID>
3032539

>  <PUBCHEM_CONFORMER_RMSD>
0.8

>  <PUBCHEM_CONFORMER_DIVERSEORDER>
1
2
3

>  <PUBCHEM_MMFF94_PARTIAL_CHARGES>
28
1 -0.36
11 -0.15
12 -0.15
13 -0.15
14 -0.15
15 -0.15
16 -0.15
17 -0.15
18 -0.15
19 0.08
2 -0.36
20 0.08
21 0.28
22 0.28
3 -0.17
33 0.15
34 0.15
35 0.15
36 0.15
37 0.15
38 0.15
39 0.15
4 -0.17
40 0.15
5 0.14
6 0.14
7 0.03
8 0.03

>  <PUBCHEM_EFFECTIVE_ROTOR_COUNT>
6

>  <PUBCHEM_PHARMACOPHORE_FEATURES>
6
1 1 acceptor
1 10 hydrophobe
1 2 acceptor
1 9 hydrophobe
6 7 11 13 15 17 19 rings
6 8 12 14 16 18 20 rings

>  <PUBCHEM_HEAVY_ATOM_COUNT>
22

>  <PUBCHEM_ATOM_DEF_STEREO_COUNT>
0

>  <PUBCHEM_ATOM_UDEF_STEREO_COUNT>
0

>  <PUBCHEM_BOND_DEF_STEREO_COUNT>
1

>  <PUBCHEM_BOND_UDEF_STEREO_COUNT>
0

>  <PUBCHEM_ISOTOPIC_ATOM_COUNT>
0

>  <PUBCHEM_COMPONENT_COUNT>
1

>  <PUBCHEM_CACTVS_TAUTO_COUNT>
1

>  <PUBCHEM_CONFORMER_ID>
002E45DB00000001

>  <PUBCHEM_MMFF94_ENERGY>
84.8584

>  <PUBCHEM_FEATURE_SELFOVERLAP>
30.447

>  <PUBCHEM_SHAPE_FINGERPRINT>
10906281 52 18115039498055273641
11796584 16 16153710920694621729
12011746 2 18410575088958046459
12236239 1 18410855438653325465
13288520 33 16200150998081454937
13533116 47 17822002065762154234
13583140 156 17240769513944283912
13911987 19 18187655716407511557
14787075 74 17418087750034851809
15048467 5 15719110262139125783
15849732 13 18410575119028099037
1813 80 18343310248931623341
18222031 100 18411416211116603385
18681886 176 18200867478745585211
200 152 17095523985229268720
21267235 1 16200434688944759811
23035841 295 17561081406080245887
23402539 116 18413386540633452838
23559900 14 16630231606504257330
23569943 247 17487354637771032038
23576562 1 18042686289992057621
26918003 58 16370729231550530184
283562 15 18269560450711335816
300161 21 15574712503880468105
3004659 81 16370998560570562288
3009799 131 18113053839699723293
34797466 226 17095252401467490118
3545911 37 15841833347716384963
4072396 5 18187917353083438067
4214541 1 15626226797106209209
4340502 62 15267340725811759516
465052 167 18114187453678910115
5486654 2 18040157322895759226
57003041 33 18335421244422328071
59755656 215 17418376869858293735
59755656 520 18130784564241167279
67856867 119 14924524042384519222
7495541 125 17458634457865754281

>  <PUBCHEM_SHAPE_MULTIPOLES>
441.01
13.6
1.65
1.41
0
0
0.17
0
-2.13
0
-0.56
0
0
-0.27

>  <PUBCHEM_SHAPE_SELFOVERLAP>
928.913

>  <PUBCHEM_SHAPE_VOLUME>
250.4

>  <PUBCHEM_COORDINATE_TYPE>
2
5
10

>  <Energy>
58.8516

$$$$
