105101
 OpenBabel06012612503D

 23 24  0  0  0  0  0  0  0  0999 V2000
   -0.1649    2.6179   -0.0029 Cl  0  0  0  0  0  0  0  0  0  0  0  0
   -3.3281    2.5230   -0.0002 Cl  0  0  0  0  0  0  0  0  0  0  0  0
   -3.0513   -2.9507    0.0037 Cl  0  0  0  0  0  0  0  0  0  0  0  0
   -4.8109   -0.2760    0.0014 Cl  0  0  0  0  0  0  0  0  0  0  0  0
    5.3872   -0.1844    0.0337 O   0  0  0  0  0  0  0  0  0  0  0  0
   -0.2436   -0.1045    0.0028 C   0  0  0  0  0  0  0  0  0  0  0  0
    1.2259   -0.1232   -0.0001 C   0  0  0  0  0  0  0  0  0  0  0  0
   -0.9987    1.0879    0.0017 C   0  0  0  0  0  0  0  0  0  0  0  0
   -0.9267   -1.3312    0.0049 C   0  0  0  0  0  0  0  0  0  0  0  0
    1.9395   -0.1366   -1.2103 C   0  0  0  0  0  0  0  0  0  0  0  0
    1.9447   -0.1384    1.2057 C   0  0  0  0  0  0  0  0  0  0  0  0
   -2.4089    1.0426    0.0022 C   0  0  0  0  0  0  0  0  0  0  0  0
   -2.3227   -1.3812    0.0045 C   0  0  0  0  0  0  0  0  0  0  0  0
   -3.0734   -0.1980    0.0032 C   0  0  0  0  0  0  0  0  0  0  0  0
    3.3368   -0.1567   -1.2166 C   0  0  0  0  0  0  0  0  0  0  0  0
    3.3407   -0.1592    1.2002 C   0  0  0  0  0  0  0  0  0  0  0  0
    4.0250   -0.1669   -0.0085 C   0  0  0  0  0  0  0  0  0  0  0  0
    5.8806   -0.1900   -0.7628 H   0  0  0  0  0  0  0  0  0  0  0  0
   -0.3879   -2.2115    0.0067 H   0  0  0  0  0  0  0  0  0  0  0  0
    1.4256   -0.1317   -2.1053 H   0  0  0  0  0  0  0  0  0  0  0  0
    1.4367   -0.1341    2.1040 H   0  0  0  0  0  0  0  0  0  0  0  0
    3.8534   -0.1638   -2.1100 H   0  0  0  0  0  0  0  0  0  0  0  0
    3.8621   -0.1688    2.0907 H   0  0  0  0  0  0  0  0  0  0  0  0
  1  8  1  0  0  0  0
  2 12  1  0  0  0  0
  3 13  1  0  0  0  0
  4 14  1  0  0  0  0
  5 17  1  0  0  0  0
  5 18  1  0  0  0  0
  6  7  1  0  0  0  0
  6  8  1  0  0  0  0
  6  9  2  0  0  0  0
  7 10  2  0  0  0  0
  7 11  1  0  0  0  0
  8 12  2  0  0  0  0
  9 13  1  0  0  0  0
  9 19  1  0  0  0  0
 10 15  1  0  0  0  0
 10 20  1  0  0  0  0
 11 16  2  0  0  0  0
 11 21  1  0  0  0  0
 12 14  1  0  0  0  0
 13 14  2  0  0  0  0
 15 17  2  0  0  0  0
 15 22  1  0  0  0  0
 16 17  1  0  0  0  0
 16 23  1  0  0  0  0
M  END
>  <PUBCHEM_COMPOUND_CID>
105101

>  <PUBCHEM_CONFORMER_RMSD>
0.6

>  <PUBCHEM_CONFORMER_DIVERSEORDER>
1

>  <PUBCHEM_MMFF94_PARTIAL_CHARGES>
21
1 -0.18
10 -0.15
11 -0.15
12 0.18
13 0.18
14 0.18
15 -0.15
16 -0.15
17 0.08
18 0.15
19 0.15
2 -0.18
20 0.15
21 0.15
22 0.15
23 0.45
3 -0.18
4 -0.18
5 -0.53
8 0.18
9 -0.15

>  <PUBCHEM_EFFECTIVE_ROTOR_COUNT>
1

>  <PUBCHEM_PHARMACOPHORE_FEATURES>
3
1 5 donor
6 6 8 9 12 13 14 rings
6 7 10 11 15 16 17 rings

>  <PUBCHEM_HEAVY_ATOM_COUNT>
17

>  <PUBCHEM_ATOM_DEF_STEREO_COUNT>
0

>  <PUBCHEM_ATOM_UDEF_STEREO_COUNT>
0

>  <PUBCHEM_BOND_DEF_STEREO_COUNT>
0

>  <PUBCHEM_BOND_UDEF_STEREO_COUNT>
0

>  <PUBCHEM_ISOTOPIC_ATOM_COUNT>
0

>  <PUBCHEM_COMPONENT_COUNT>
1

>  <PUBCHEM_CACTVS_TAUTO_COUNT>
2

>  <PUBCHEM_CONFORMER_ID>
00019A8D00000001

>  <PUBCHEM_MMFF94_ENERGY>
51.1207

>  <PUBCHEM_FEATURE_SELFOVERLAP>
15.223

>  <PUBCHEM_SHAPE_FINGERPRINT>
10493431 412 18198071266305949729
11132069 177 18412547582985808789
11680986 33 18195802105970293977
12173636 292 18194399988010816133
12236239 1 17676487241911662570
12390115 104 18056773044063051689
12500047 106 18340482266385491182
12553582 1 18335698407742977875
13103583 49 17536916439137909355
13140716 1 18267027352752732947
13214271 11 18273491269273456236
13538477 17 18186800300730123003
13862211 1 18410571825680161279
14115302 16 17894916273235508743
14386348 63 17846784013647696454
14911166 2 18409724080623804063
15042514 8 18337397149171601587
15219456 202 17774724164809746110
15375462 189 17967810569762550579
15669948 3 18335136488217398707
16752209 62 18335691724878820971
16945 1 18410573998690500231
17804303 29 18341331184352555361
18175812 5 17775000228095982654
18186145 218 15357974611698121746
19049666 15 17702111270081427782
19141452 34 17846501478299633439
200 152 16515399677092828830
20279233 1 17846785113101379998
20510252 161 18271808960964992737
20645477 56 18340491071358871129
20871999 31 18410294709287842421
21029758 27 18187652422774581269
21065201 7 18413388722556252618
21267235 1 18335430070611964786
21501502 16 18122628511914363693
2297311 6 18341905077940669220
23175994 123 16988850483872994792
23184049 29 18266175222292562445
2334 1 17906171008050106987
23366157 5 17754172299522177653
23402539 116 18341887480921619933
23419403 2 17758077726010914869
23493267 7 18341610365421143138
23557571 272 18272937102776113828
23559900 14 18199753553492562910
2748010 2 18050843614161455015
474 4 17096663182713952708
573450 72 18261383430386088906
5902787 121 18265330779887142835
69090 78 17560795546195211855
7364860 26 17982734378562678857
77492 1 17676206866441298434
81228 2 18270134417392865297
9709674 26 18272095946189773326

>  <PUBCHEM_SHAPE_MULTIPOLES>
351.46
8.54
2.37
0.96
4.56
0.34
0
-1.31
0
-3.41
0
0.89
-0.05
0

>  <PUBCHEM_SHAPE_SELFOVERLAP>
728.303

>  <PUBCHEM_SHAPE_VOLUME>
205.2

>  <PUBCHEM_COORDINATE_TYPE>
2
5
10

>  <Energy>
43.627

$$$$
