183679
 OpenBabel06012612503D

 33 34  0  0  1  0  0  0  0  0999 V2000
   -0.7154   -2.5483   -1.8594 Cl  0  0  0  0  0  0  0  0  0  0  0  0
   -2.0881   -3.2563    0.5798 Cl  0  0  0  0  0  0  0  0  0  0  0  0
    0.7891   -3.5447    0.4202 Cl  0  0  0  0  0  0  0  0  0  0  0  0
    4.6661    1.5688    0.1467 O   0  0  0  0  0  0  0  0  0  0  0  0
   -4.6872    2.5765   -0.5271 O   0  0  0  0  0  0  0  0  0  0  0  0
   -0.4164   -1.0298    0.5640 C   0  0  1  0  0  0  0  0  0  0  0  0
    0.9425   -0.3368    0.4097 C   0  0  0  0  0  0  0  0  0  0  0  0
   -1.5554   -0.0497    0.2610 C   0  0  0  0  0  0  0  0  0  0  0  0
   -0.5855   -2.4673   -0.0628 C   0  0  0  0  0  0  0  0  0  0  0  0
    1.4868    0.3916    1.4833 C   0  0  0  0  0  0  0  0  0  0  0  0
    1.6637   -0.3792   -0.7871 C   0  0  0  0  0  0  0  0  0  0  0  0
   -2.4136    0.3587    1.2965 C   0  0  0  0  0  0  0  0  0  0  0  0
   -1.7597    0.4821   -1.0258 C   0  0  0  0  0  0  0  0  0  0  0  0
    2.7319    1.0230    1.3628 C   0  0  0  0  0  0  0  0  0  0  0  0
    2.9038    0.2405   -0.9023 C   0  0  0  0  0  0  0  0  0  0  0  0
    3.4514    0.9390    0.1725 C   0  0  0  0  0  0  0  0  0  0  0  0
   -3.4653    1.2425    1.0494 C   0  0  0  0  0  0  0  0  0  0  0  0
   -2.8202    1.3512   -1.2738 C   0  0  0  0  0  0  0  0  0  0  0  0
   -3.6648    1.7231   -0.2418 C   0  0  0  0  0  0  0  0  0  0  0  0
    5.3865    1.4611   -1.0797 C   0  0  0  0  0  0  0  0  0  0  0  0
   -5.2752    2.8463    0.1506 H   0  0  0  0  0  0  0  0  0  0  0  0
   -0.4701   -1.2977    1.5985 H   0  0  0  0  0  0  0  0  0  0  0  0
    0.9629    0.4618    2.3697 H   0  0  0  0  0  0  0  0  0  0  0  0
    1.2692   -0.8789   -1.5993 H   0  0  0  0  0  0  0  0  0  0  0  0
   -2.2640    0.0002    2.2526 H   0  0  0  0  0  0  0  0  0  0  0  0
   -1.1182    0.2262   -1.7927 H   0  0  0  0  0  0  0  0  0  0  0  0
    3.1180    1.5529    2.1598 H   0  0  0  0  0  0  0  0  0  0  0  0
    3.4234    0.1824   -1.7921 H   0  0  0  0  0  0  0  0  0  0  0  0
   -4.0894    1.5368    1.8169 H   0  0  0  0  0  0  0  0  0  0  0  0
   -2.9761    1.7173   -2.2260 H   0  0  0  0  0  0  0  0  0  0  0  0
    6.3159    1.9845   -0.9946 H   0  0  0  0  0  0  0  0  0  0  0  0
    4.8079    1.8881   -1.8720 H   0  0  0  0  0  0  0  0  0  0  0  0
    5.5763    0.4298   -1.2925 H   0  0  0  0  0  0  0  0  0  0  0  0
  1  9  1  0  0  0  0
  2  9  1  0  0  0  0
  3  9  1  0  0  0  0
  4 16  1  0  0  0  0
  4 20  1  0  0  0  0
  5 19  1  0  0  0  0
  5 21  1  0  0  0  0
  6  7  1  0  0  0  0
  6  8  1  0  0  0  0
  6  9  1  0  0  0  0
  6 22  1  1  0  0  0
  7 10  2  0  0  0  0
  7 11  1  0  0  0  0
  8 12  2  0  0  0  0
  8 13  1  0  0  0  0
 10 14  1  0  0  0  0
 10 23  1  0  0  0  0
 11 15  2  0  0  0  0
 11 24  1  0  0  0  0
 12 17  1  0  0  0  0
 12 25  1  0  0  0  0
 13 18  2  0  0  0  0
 13 26  1  0  0  0  0
 14 16  2  0  0  0  0
 14 27  1  0  0  0  0
 15 16  1  0  0  0  0
 15 28  1  0  0  0  0
 17 19  2  0  0  0  0
 17 29  1  0  0  0  0
 18 19  1  0  0  0  0
 18 30  1  0  0  0  0
 20 31  1  0  0  0  0
 20 32  1  0  0  0  0
 20 33  1  0  0  0  0
M  END
>  <PUBCHEM_COMPOUND_CID>
183679

>  <PUBCHEM_CONFORMER_RMSD>
0.6

>  <PUBCHEM_CONFORMER_DIVERSEORDER>
1
6
8
3
7
2
4
5

>  <PUBCHEM_MMFF94_PARTIAL_CHARGES>
29
1 -0.29
10 -0.15
11 -0.15
12 -0.15
13 -0.15
14 -0.15
15 -0.15
16 0.08
17 -0.15
18 -0.15
19 0.08
2 -0.29
20 0.28
22 0.15
23 0.15
24 0.15
25 0.15
26 0.15
27 0.15
28 0.15
29 0.15
3 -0.29
30 0.45
4 -0.36
5 -0.53
6 0.29
7 -0.14
8 -0.14
9 0.87

>  <PUBCHEM_EFFECTIVE_ROTOR_COUNT>
4

>  <PUBCHEM_PHARMACOPHORE_FEATURES>
4
1 4 acceptor
1 5 donor
6 7 10 11 14 15 16 rings
6 8 12 13 17 18 19 rings

>  <PUBCHEM_HEAVY_ATOM_COUNT>
20

>  <PUBCHEM_ATOM_DEF_STEREO_COUNT>
0

>  <PUBCHEM_ATOM_UDEF_STEREO_COUNT>
1

>  <PUBCHEM_BOND_DEF_STEREO_COUNT>
0

>  <PUBCHEM_BOND_UDEF_STEREO_COUNT>
0

>  <PUBCHEM_ISOTOPIC_ATOM_COUNT>
0

>  <PUBCHEM_COMPONENT_COUNT>
1

>  <PUBCHEM_CACTVS_TAUTO_COUNT>
2

>  <PUBCHEM_CONFORMER_ID>
0002CD7F00000001

>  <PUBCHEM_MMFF94_ENERGY>
73.9136

>  <PUBCHEM_FEATURE_SELFOVERLAP>
20.297

>  <PUBCHEM_SHAPE_FINGERPRINT>
10165383 225 18339942457932437785
10498660 4 18412258415760133401
105312 117 18411142441643583364
107951 10 18337685190931742558
12173636 292 18264764535815163814
12500047 106 18341050813345950386
12633257 1 14851895763120412476
12707595 3 10231741301993673545
12730499 353 18267029367118878913
12788726 201 18120360206220178395
12892183 10 15140956197694913021
13134695 92 17543338367915732535
13294875 104 18058428951275904354
13681431 1 17478048255093395511
14142880 1 18262790882415360959
14341114 328 15936989490710827700
15163728 17 18265906760919650485
15342168 16 18262796264257783165
15534591 1 18113899411617900650
16752209 62 18195789980892800850
16945 1 18335982081800881883
17357779 13 17769641328935066255
1741750 31 18411415128963933032
17980427 23 17022911159726615661
18186145 218 18131075900367349808
18785283 64 18117276947771338882
19765921 60 18201143361574610643
200 152 12319739167734140180
204376 136 18408604747110163409
20600515 1 17547026576560418843
20645477 56 18340218499975803400
20671657 53 10879981476103515499
20871999 31 18268712886565830812
21120745 212 17395600722970564790
21524375 3 18270954661651761331
21756936 100 17096098016731349540
2255824 54 17908979916461607695
22907989 373 18055634177011223293
23419403 2 17553535419235429247
23493267 7 18342180020388238770
23557571 272 18197791092455890004
23559900 14 16953395486137635911
238 59 18057604274636923895
25 1 17988932132371379456
283562 15 18193268830689794299
3729539 64 17977973206169285278
3759504 43 18409731785130592066
458136 41 18339084770269785667
474 4 18268706117549744249
495365 180 18047461228557897065
559249 180 18413109481548111254
59755656 520 18059310810966778235
6049 1 17629482166505088248
633830 44 17844544209857101513
6442390 28 18411147935107351227
7364860 26 17980190899109088859
7808743 9 18334015029512988236
7970288 3 9727626211311785957
81228 2 17980473787072245187
84936 182 18055065467738935481

>  <PUBCHEM_SHAPE_MULTIPOLES>
405.46
7.86
3.38
1.51
5.66
3.4
0.15
-8.37
1.33
-2.31
0.23
0
0
0.24

>  <PUBCHEM_SHAPE_SELFOVERLAP>
834.618

>  <PUBCHEM_SHAPE_VOLUME>
232.2

>  <PUBCHEM_COORDINATE_TYPE>
2
5
10

>  <Energy>
84.9613

$$$$
