5888
 OpenBabel05142611063D

 43 46  0  0  1  0  0  0  0  0999 V2000
   -5.5959    0.0204   -0.4024 O   0  0  0  0  0  0  0  0  0  0  0  0
    2.8942   -0.7677   -0.2016 C   0  0  2  0  0  0  0  0  0  0  0  0
    2.2791    0.5291    0.3568 C   0  0  2  0  0  0  0  0  0  0  0  0
    0.8122    0.6845   -0.0438 C   0  0  1  0  0  0  0  0  0  0  0  0
    0.0029   -0.5052    0.5555 C   0  0  2  0  0  0  0  0  0  0  0  0
    2.1426   -1.9539    0.4115 C   0  0  0  0  0  0  0  0  0  0  0  0
    4.3458   -0.6013    0.2709 C   0  0  0  0  0  0  0  0  0  0  0  0
    3.2819    1.6030   -0.0483 C   0  0  0  0  0  0  0  0  0  0  0  0
    0.6264   -1.8681    0.1502 C   0  0  0  0  0  0  0  0  0  0  0  0
    4.6433    0.8970    0.0728 C   0  0  0  0  0  0  0  0  0  0  0  0
    0.2048    1.9992    0.4492 C   0  0  0  0  0  0  0  0  0  0  0  0
    2.8853   -0.8849   -1.7448 C   0  0  0  0  0  0  0  0  0  0  0  0
   -1.4890   -0.3634    0.2608 C   0  0  0  0  0  0  0  0  0  0  0  0
   -1.2073    2.1557   -0.1042 C   0  0  0  0  0  0  0  0  0  0  0  0
   -2.0490    0.9067   -0.0046 C   0  0  0  0  0  0  0  0  0  0  0  0
   -2.3547   -1.4690    0.3359 C   0  0  0  0  0  0  0  0  0  0  0  0
   -3.4294    1.0324   -0.2406 C   0  0  0  0  0  0  0  0  0  0  0  0
   -3.7275   -1.3305    0.1094 C   0  0  0  0  0  0  0  0  0  0  0  0
   -4.2548   -0.0822   -0.1823 C   0  0  0  0  0  0  0  0  0  0  0  0
   -5.9757    0.8536   -0.6013 H   0  0  0  0  0  0  0  0  0  0  0  0
    2.1627    0.5719    1.4195 H   0  0  0  0  0  0  0  0  0  0  0  0
    0.7643    0.6906   -1.1127 H   0  0  0  0  0  0  0  0  0  0  0  0
    0.0741   -0.4775    1.6228 H   0  0  0  0  0  0  0  0  0  0  0  0
    2.3120   -1.9625    1.4679 H   0  0  0  0  0  0  0  0  0  0  0  0
    2.5082   -2.8504   -0.0442 H   0  0  0  0  0  0  0  0  0  0  0  0
    5.0073   -1.2001   -0.3197 H   0  0  0  0  0  0  0  0  0  0  0  0
    4.4833   -0.9140    1.2849 H   0  0  0  0  0  0  0  0  0  0  0  0
    3.2281    2.4434    0.6118 H   0  0  0  0  0  0  0  0  0  0  0  0
    3.1014    1.9890   -1.0298 H   0  0  0  0  0  0  0  0  0  0  0  0
    0.4537   -2.0219   -0.8945 H   0  0  0  0  0  0  0  0  0  0  0  0
    0.1606   -2.6186    0.7540 H   0  0  0  0  0  0  0  0  0  0  0  0
    5.2165    1.0449   -0.8185 H   0  0  0  0  0  0  0  0  0  0  0  0
    5.2100    1.2894    0.8912 H   0  0  0  0  0  0  0  0  0  0  0  0
    0.8094    2.8167    0.1162 H   0  0  0  0  0  0  0  0  0  0  0  0
    0.1662    1.9913    1.5185 H   0  0  0  0  0  0  0  0  0  0  0  0
    1.8785   -1.0014   -2.0879 H   0  0  0  0  0  0  0  0  0  0  0  0
    3.4638   -1.7348   -2.0413 H   0  0  0  0  0  0  0  0  0  0  0  0
    3.3075    0.0006   -2.1722 H   0  0  0  0  0  0  0  0  0  0  0  0
   -1.1356    2.4314   -1.1356 H   0  0  0  0  0  0  0  0  0  0  0  0
   -1.6911    2.9025    0.4899 H   0  0  0  0  0  0  0  0  0  0  0  0
   -1.9699   -2.3994    0.5622 H   0  0  0  0  0  0  0  0  0  0  0  0
   -3.8309    1.9578   -0.4583 H   0  0  0  0  0  0  0  0  0  0  0  0
   -4.3462   -2.1550    0.1593 H   0  0  0  0  0  0  0  0  0  0  0  0
  1 19  1  0  0  0  0
  1 20  1  0  0  0  0
  2  3  1  0  0  0  0
  2  6  1  0  0  0  0
  2  7  1  0  0  0  0
  2 12  1  6  0  0  0
  3  4  1  0  0  0  0
  3  8  1  0  0  0  0
  3 21  1  1  0  0  0
  4  5  1  0  0  0  0
  4 11  1  0  0  0  0
  4 22  1  6  0  0  0
  5  9  1  0  0  0  0
  5 13  1  0  0  0  0
  5 23  1  1  0  0  0
  6  9  1  0  0  0  0
  6 24  1  0  0  0  0
  6 25  1  0  0  0  0
  7 10  1  0  0  0  0
  7 26  1  0  0  0  0
  7 27  1  0  0  0  0
  8 10  1  0  0  0  0
  8 28  1  0  0  0  0
  8 29  1  0  0  0  0
  9 30  1  0  0  0  0
  9 31  1  0  0  0  0
 10 32  1  0  0  0  0
 10 33  1  0  0  0  0
 11 14  1  0  0  0  0
 11 34  1  0  0  0  0
 11 35  1  0  0  0  0
 12 36  1  0  0  0  0
 12 37  1  0  0  0  0
 12 38  1  0  0  0  0
 13 15  2  0  0  0  0
 13 16  1  0  0  0  0
 14 15  1  0  0  0  0
 14 39  1  0  0  0  0
 14 40  1  0  0  0  0
 15 17  1  0  0  0  0
 16 18  2  0  0  0  0
 16 41  1  0  0  0  0
 17 19  2  0  0  0  0
 17 42  1  0  0  0  0
 18 19  1  0  0  0  0
 18 43  1  0  0  0  0
M  END
>  <PUBCHEM_COMPOUND_CID>
5888

>  <PUBCHEM_CONFORMER_RMSD>
0.6

>  <PUBCHEM_CONFORMER_DIVERSEORDER>
1

>  <PUBCHEM_MMFF94_PARTIAL_CHARGES>
13
1 -0.53
13 -0.14
14 0.14
15 -0.14
16 -0.15
17 -0.15
18 -0.15
19 0.08
40 0.15
41 0.15
42 0.15
43 0.45
5 0.14

>  <PUBCHEM_EFFECTIVE_ROTOR_COUNT>
1.4

>  <PUBCHEM_PHARMACOPHORE_FEATURES>
5
1 1 donor
5 2 3 7 8 10 rings
6 13 15 16 17 18 19 rings
6 2 3 4 5 6 9 rings
6 4 5 11 13 14 15 rings

>  <PUBCHEM_HEAVY_ATOM_COUNT>
19

>  <PUBCHEM_ATOM_DEF_STEREO_COUNT>
4

>  <PUBCHEM_ATOM_UDEF_STEREO_COUNT>
0

>  <PUBCHEM_BOND_DEF_STEREO_COUNT>
0

>  <PUBCHEM_BOND_UDEF_STEREO_COUNT>
0

>  <PUBCHEM_ISOTOPIC_ATOM_COUNT>
0

>  <PUBCHEM_COMPONENT_COUNT>
1

>  <PUBCHEM_CACTVS_TAUTO_COUNT>
9

>  <PUBCHEM_CONFORMER_ID>
0000170000000001

>  <PUBCHEM_MMFF94_ENERGY>
61.7502

>  <PUBCHEM_FEATURE_SELFOVERLAP>
25.47

>  <PUBCHEM_SHAPE_FINGERPRINT>
10498660 4 18407761417296575772
10608611 8 18408882910503681977
10616163 171 18411982446857117031
10646746 165 18408041793046248292
10967382 1 18410011048119868122
11132069 177 18409727378383305208
11471102 20 18410853274047875928
11578080 2 16735501968157792646
11806522 49 18411980303720975973
12236239 1 17704072893704881931
12403259 226 18264201423122684884
12596599 1 17988380233369245863
128620 24 18343581841256572910
13140716 1 18193001632516035665
13224815 77 18409735053510877658
14115302 16 17967822668695998671
14178342 30 18051965923248954320
14252887 29 17846504720603861046
14787075 74 18269553995580996912
14790565 3 17763184636143808753
15196674 1 18409729573122071403
15375358 24 18409166636069486747
15442244 35 18048877399128401354
15536298 74 18341895190414322176
15635459 17 18201445752683545222
15848702 151 17774731887203200783
16945 1 18194409896341676912
17492 89 18264486191622530274
18186145 218 18410581643247010004
19141452 34 18130790096680913367
192875 21 16950288390478152156
200 152 18060416924069908337
20279233 1 18408327687222689618
20510252 161 18272090439899177561
20645477 70 18201439155529421582
21029758 11 18342173384432021529
21267235 1 18410300198403882579
21421861 104 17969778571054074850
21501502 16 18194120720240658832
21618674 68 18272093785942113772
221490 88 18192153913272251371
23402539 116 18339916112798079742
23402655 69 18412539882357250093
23557571 272 18272656701514814404
23559900 14 18268425742322213426
2748010 2 18265619968503687449
2871803 45 18409729538931131542
296302 2 18342740744862791664
335352 9 18409446964289819079
34934 24 18411131463512021523
351380 180 18409164424620200210
3545911 37 18334858320228251947
4028521 119 18260824874147099589
4072396 5 18335123290067741674
4214541 1 18410009901511669785
474 4 17386013892088156830
495365 180 17489013985494800760
4990 188 18273500052407541550
5104073 3 18410011009486301313
537710 114 18410295821647578545
543358 83 18340772537587229481
58051976 378 18411982477122504172
59755656 215 18336831897047098990
69090 78 18343580758903936118
7364860 26 18198903801975230993
8809292 202 18260551160081607347
9709674 26 18339929225022199358

>  <PUBCHEM_SHAPE_MULTIPOLES>
385.14
9.07
2.11
0.85
3.86
0.22
0.26
-0.22
1.01
-0.28
-0.15
-0.46
-0.15
0.32

>  <PUBCHEM_SHAPE_SELFOVERLAP>
838.792

>  <PUBCHEM_SHAPE_VOLUME>
210.4

>  <PUBCHEM_COORDINATE_TYPE>
2
5
10

>  <Energy>
51.612

$$$$
