3224
 OpenBabel05142611063D

 25 27  0  0  1  0  0  0  0  0999 V2000
    1.6363   -2.7632   -0.1359 Cl  0  0  0  0  0  0  0  0  0  0  0  0
    1.6373    2.7628   -0.1372 Cl  0  0  0  0  0  0  0  0  0  0  0  0
    3.3277   -0.0003    1.1074 Cl  0  0  0  0  0  0  0  0  0  0  0  0
    3.0350   -0.0008   -1.7561 Cl  0  0  0  0  0  0  0  0  0  0  0  0
   -0.2492   -1.7114    2.3674 Cl  0  0  0  0  0  0  0  0  0  0  0  0
   -0.2483    1.7129    2.3668 Cl  0  0  0  0  0  0  0  0  0  0  0  0
   -3.1669    0.0001   -0.4815 S   0  0  2  0  0  0  0  0  0  0  0  0
   -2.1229   -1.2046   -0.2686 O   0  0  0  0  0  0  0  0  0  0  0  0
   -2.1227    1.2046   -0.2687 O   0  0  0  0  0  0  0  0  0  0  0  0
   -4.0766    0.0002    0.7054 O   0  0  0  0  0  0  0  0  0  0  0  0
    0.0642   -0.7890   -1.3267 C   0  0  1  0  0  0  0  0  0  0  0  0
    0.0643    0.7887   -1.3269 C   0  0  2  0  0  0  0  0  0  0  0  0
    1.0084   -1.1218   -0.1093 C   0  0  2  0  0  0  0  0  0  0  0  0
    1.0088    1.1217   -0.1097 C   0  0  1  0  0  0  0  0  0  0  0  0
    2.0953   -0.0003   -0.2175 C   0  0  0  0  0  0  0  0  0  0  0  0
    0.3423   -0.6688    1.1715 C   0  0  0  0  0  0  0  0  0  0  0  0
    0.3426    0.6695    1.1712 C   0  0  0  0  0  0  0  0  0  0  0  0
   -1.2907   -1.5049   -1.3713 C   0  0  0  0  0  0  0  0  0  0  0  0
   -1.2905    1.5048   -1.3714 C   0  0  0  0  0  0  0  0  0  0  0  0
    0.4190   -1.1902   -2.2529 H   0  0  0  0  0  0  0  0  0  0  0  0
    0.4190    1.1896   -2.2534 H   0  0  0  0  0  0  0  0  0  0  0  0
   -1.7979   -1.2146   -2.2676 H   0  0  0  0  0  0  0  0  0  0  0  0
   -1.0929   -2.5560   -1.3398 H   0  0  0  0  0  0  0  0  0  0  0  0
   -1.1155    2.5603   -1.3864 H   0  0  0  0  0  0  0  0  0  0  0  0
   -1.7975    1.1654   -2.2504 H   0  0  0  0  0  0  0  0  0  0  0  0
  3 15  1  0  0  0  0
  4 15  1  0  0  0  0
  5 16  1  0  0  0  0
  6 17  1  0  0  0  0
  7  8  1  0  0  0  0
  7  9  1  0  0  0  0
  7 10  2  1  0  0  0
  8 18  1  0  0  0  0
  9 19  1  0  0  0  0
 11 12  1  0  0  0  0
 11 13  1  0  0  0  0
 11 18  1  0  0  0  0
 11 20  1  6  0  0  0
 12 14  1  0  0  0  0
 12 19  1  0  0  0  0
 12 21  1  6  0  0  0
 13  1  1  1  0  0  0
 13 15  1  0  0  0  0
 13 16  1  0  0  0  0
 14  2  1  1  0  0  0
 14 15  1  0  0  0  0
 14 17  1  0  0  0  0
 16 17  2  0  0  0  0
 18 22  1  0  0  0  0
 18 23  1  0  0  0  0
 19 24  1  0  0  0  0
 19 25  1  0  0  0  0
M  END
>  <PUBCHEM_COMPOUND_CID>
3224

>  <PUBCHEM_CONFORMER_RMSD>
0.6

>  <PUBCHEM_CONFORMER_DIVERSEORDER>
1
2
6
3
4
5

>  <PUBCHEM_MMFF94_PARTIAL_CHARGES>
15
1 -0.29
10 -0.5
13 0.43
14 0.43
15 0.58
18 0.28
19 0.28
2 -0.29
3 -0.29
4 -0.29
5 -0.14
6 -0.14
7 0.6
8 -0.33
9 -0.33

>  <PUBCHEM_EFFECTIVE_ROTOR_COUNT>
1

>  <PUBCHEM_PHARMACOPHORE_FEATURES>
3
1 10 acceptor
7 11 12 13 14 15 16 17 rings
7 7 8 9 11 12 18 19 rings

>  <PUBCHEM_HEAVY_ATOM_COUNT>
19

>  <PUBCHEM_ATOM_DEF_STEREO_COUNT>
0

>  <PUBCHEM_ATOM_UDEF_STEREO_COUNT>
4

>  <PUBCHEM_BOND_DEF_STEREO_COUNT>
0

>  <PUBCHEM_BOND_UDEF_STEREO_COUNT>
0

>  <PUBCHEM_ISOTOPIC_ATOM_COUNT>
0

>  <PUBCHEM_COMPONENT_COUNT>
1

>  <PUBCHEM_CACTVS_TAUTO_COUNT>
1

>  <PUBCHEM_CONFORMER_ID>
00000C9800000001

>  <PUBCHEM_MMFF94_ENERGY>
83.3377

>  <PUBCHEM_FEATURE_SELFOVERLAP>
15.282

>  <PUBCHEM_SHAPE_FINGERPRINT>
10863032 1 18118684318491475309
10948715 1 18052540155622753125
12423570 1 11200922808897924956
12491281 212 17904478850342579172
13132413 78 18129924754901223736
13140716 1 18266453398486320541
144361 1 18338538385830937390
14817 1 8983703752323331475
16945 1 18410570690959008215
20691752 17 17751062812024332285
21501502 16 17983563388939256860
22344851 341 18271237339324595644
22802520 49 18189344630671354410
2334 1 17905599252733156389
23419403 2 15599265384581606692
2748010 2 17755876551118762654
296302 2 16845287293525828872
3286 77 17822001034278938496
5337951 7 18041286568286661084
568465 68 18340490078915562075

>  <PUBCHEM_SHAPE_MULTIPOLES>
388.47
4.23
2.44
2.09
2.1
0
-0.9
0
0.51
-0.77
-0.26
-0.15
0
0

>  <PUBCHEM_SHAPE_SELFOVERLAP>
777.338

>  <PUBCHEM_SHAPE_VOLUME>
236.1

>  <PUBCHEM_COORDINATE_TYPE>
2
5
10

>  <Energy>
54.0504

$$$$
