6013
 OpenBabel06012612503D

 49 52  0  0  1  0  0  0  0  0999 V2000
   -5.1784    1.0645    0.3700 O   0  0  0  0  0  0  0  0  0  0  0  0
    5.5923   -0.1530    0.9640 O   0  0  0  0  0  0  0  0  0  0  0  0
   -1.9990   -0.7357    0.3565 C   0  0  2  0  0  0  0  0  0  0  0  0
   -2.7807    0.5500    0.0237 C   0  0  2  0  0  0  0  0  0  0  0  0
   -0.6218   -0.7773   -0.3123 C   0  0  1  0  0  0  0  0  0  0  0  0
    0.2138    0.4457    0.1816 C   0  0  1  0  0  0  0  0  0  0  0  0
    1.6716    0.4728   -0.4183 C   0  0  2  0  0  0  0  0  0  0  0  0
   -1.9909    1.7416    0.5805 C   0  0  0  0  0  0  0  0  0  0  0  0
   -0.5599    1.7830    0.0143 C   0  0  0  0  0  0  0  0  0  0  0  0
   -4.0962    0.2444    0.7684 C   0  0  2  0  0  0  0  0  0  0  0  0
   -3.0021   -1.8485    0.0630 C   0  0  0  0  0  0  0  0  0  0  0  0
    0.1160   -2.0838    0.0066 C   0  0  0  0  0  0  0  0  0  0  0  0
   -4.3588   -1.2461    0.4700 C   0  0  0  0  0  0  0  0  0  0  0  0
    2.3239   -0.9052   -0.2384 C   0  0  0  0  0  0  0  0  0  0  0  0
    1.4977   -2.1065   -0.6338 C   0  0  0  0  0  0  0  0  0  0  0  0
   -3.0537    0.7693   -1.4851 C   0  0  0  0  0  0  0  0  0  0  0  0
    2.4945    1.5539    0.3428 C   0  0  0  0  0  0  0  0  0  0  0  0
    1.6729    0.8121   -1.9256 C   0  0  0  0  0  0  0  0  0  0  0  0
    3.9977    1.4369    0.1378 C   0  0  0  0  0  0  0  0  0  0  0  0
    3.5735   -1.0861    0.2223 C   0  0  0  0  0  0  0  0  0  0  0  0
    4.4711    0.0571    0.5110 C   0  0  0  0  0  0  0  0  0  0  0  0
   -4.9746    1.9906    0.5740 H   0  0  0  0  0  0  0  0  0  0  0  0
   -1.6799   -0.8298    1.3735 H   0  0  0  0  0  0  0  0  0  0  0  0
   -0.7509   -0.7318   -1.3736 H   0  0  0  0  0  0  0  0  0  0  0  0
    0.3556    0.3221    1.2349 H   0  0  0  0  0  0  0  0  0  0  0  0
   -1.9410    1.6584    1.6461 H   0  0  0  0  0  0  0  0  0  0  0  0
   -2.4926    2.6416    0.2922 H   0  0  0  0  0  0  0  0  0  0  0  0
   -0.6155    2.0135   -1.0291 H   0  0  0  0  0  0  0  0  0  0  0  0
   -0.0249    2.5265    0.5672 H   0  0  0  0  0  0  0  0  0  0  0  0
   -4.0066    0.4503    1.8146 H   0  0  0  0  0  0  0  0  0  0  0  0
   -2.7836   -2.7201    0.6439 H   0  0  0  0  0  0  0  0  0  0  0  0
   -2.9814   -2.1613   -0.9601 H   0  0  0  0  0  0  0  0  0  0  0  0
   -0.4555   -2.9075   -0.3672 H   0  0  0  0  0  0  0  0  0  0  0  0
    0.2330   -2.1565    1.0676 H   0  0  0  0  0  0  0  0  0  0  0  0
   -5.0635   -1.3458   -0.3289 H   0  0  0  0  0  0  0  0  0  0  0  0
   -4.7681   -1.7478    1.3218 H   0  0  0  0  0  0  0  0  0  0  0  0
    1.3853   -2.1134   -1.6979 H   0  0  0  0  0  0  0  0  0  0  0  0
    2.0059   -2.9842   -0.2928 H   0  0  0  0  0  0  0  0  0  0  0  0
   -2.1327    0.9800   -1.9872 H   0  0  0  0  0  0  0  0  0  0  0  0
   -3.7247    1.5933   -1.6101 H   0  0  0  0  0  0  0  0  0  0  0  0
   -3.4923   -0.1140   -1.9002 H   0  0  0  0  0  0  0  0  0  0  0  0
    2.2881    1.4609    1.3886 H   0  0  0  0  0  0  0  0  0  0  0  0
    2.1990    2.5046   -0.0493 H   0  0  0  0  0  0  0  0  0  0  0  0
    1.1095    0.0744   -2.4577 H   0  0  0  0  0  0  0  0  0  0  0  0
    2.6795    0.8222   -2.2881 H   0  0  0  0  0  0  0  0  0  0  0  0
    1.2304    1.7749   -2.0748 H   0  0  0  0  0  0  0  0  0  0  0  0
    4.4947    2.1585    0.7519 H   0  0  0  0  0  0  0  0  0  0  0  0
    4.2229    1.6147   -0.8930 H   0  0  0  0  0  0  0  0  0  0  0  0
    3.9169   -2.0466    0.3791 H   0  0  0  0  0  0  0  0  0  0  0  0
  1 10  1  0  0  0  0
  1 22  1  0  0  0  0
  2 21  2  0  0  0  0
  3  4  1  0  0  0  0
  3  5  1  0  0  0  0
  3 11  1  0  0  0  0
  3 23  1  1  0  0  0
  4  8  1  0  0  0  0
  4 10  1  0  0  0  0
  4 16  1  6  0  0  0
  5  6  1  0  0  0  0
  5 12  1  0  0  0  0
  5 24  1  6  0  0  0
  6  7  1  0  0  0  0
  6  9  1  0  0  0  0
  6 25  1  1  0  0  0
  7 14  1  0  0  0  0
  7 17  1  0  0  0  0
  7 18  1  6  0  0  0
  8  9  1  0  0  0  0
  8 26  1  0  0  0  0
  8 27  1  0  0  0  0
  9 28  1  0  0  0  0
  9 29  1  0  0  0  0
 10 13  1  0  0  0  0
 10 30  1  1  0  0  0
 11 13  1  0  0  0  0
 11 31  1  0  0  0  0
 11 32  1  0  0  0  0
 12 15  1  0  0  0  0
 12 33  1  0  0  0  0
 12 34  1  0  0  0  0
 13 35  1  0  0  0  0
 13 36  1  0  0  0  0
 14 15  1  0  0  0  0
 14 20  2  0  0  0  0
 15 37  1  0  0  0  0
 15 38  1  0  0  0  0
 16 39  1  0  0  0  0
 16 40  1  0  0  0  0
 16 41  1  0  0  0  0
 17 19  1  0  0  0  0
 17 42  1  0  0  0  0
 17 43  1  0  0  0  0
 18 44  1  0  0  0  0
 18 45  1  0  0  0  0
 18 46  1  0  0  0  0
 19 21  1  0  0  0  0
 19 47  1  0  0  0  0
 19 48  1  0  0  0  0
 20 21  1  0  0  0  0
 20 49  1  0  0  0  0
M  END
>  <PUBCHEM_COMPOUND_CID>
6013

>  <PUBCHEM_CONFORMER_RMSD>
0.6

>  <PUBCHEM_CONFORMER_DIVERSEORDER>
1

>  <PUBCHEM_MMFF94_PARTIAL_CHARGES>
11
1 -0.68
10 0.28
14 -0.28
15 0.14
19 0.06
2 -0.57
20 -0.14
21 0.49
48 0.15
49 0.4
7 0.14

>  <PUBCHEM_EFFECTIVE_ROTOR_COUNT>
1.8

>  <PUBCHEM_PHARMACOPHORE_FEATURES>
7
1 1 acceptor
1 1 donor
1 2 acceptor
5 3 4 10 11 13 rings
6 3 4 5 6 8 9 rings
6 5 6 7 12 14 15 rings
6 7 14 17 19 20 21 rings

>  <PUBCHEM_HEAVY_ATOM_COUNT>
21

>  <PUBCHEM_ATOM_DEF_STEREO_COUNT>
6

>  <PUBCHEM_ATOM_UDEF_STEREO_COUNT>
0

>  <PUBCHEM_BOND_DEF_STEREO_COUNT>
0

>  <PUBCHEM_BOND_UDEF_STEREO_COUNT>
0

>  <PUBCHEM_ISOTOPIC_ATOM_COUNT>
0

>  <PUBCHEM_COMPONENT_COUNT>
1

>  <PUBCHEM_CACTVS_TAUTO_COUNT>
5

>  <PUBCHEM_CONFORMER_ID>
0000177D00000001

>  <PUBCHEM_MMFF94_ENERGY>
67.5416

>  <PUBCHEM_FEATURE_SELFOVERLAP>
35.618

>  <PUBCHEM_SHAPE_FINGERPRINT>
10062212 137 18336825385559829163
10759866 29 17897457309511876188
10967382 1 18412548682291571786
11132069 177 18410018732180467827
11370993 70 18410569557056084199
11578080 2 16735503067342509174
12011746 2 18412547592124142406
12236239 1 18040155136873436768
12251169 10 18410008845387181634
12403259 226 18410006624652160988
12403259 415 18408880746209696412
12403260 363 18340481291412090749
12403814 3 17894914044785590877
12507557 5 18408881845467772304
12633257 1 18341888602346167976
12839892 36 18340758291450253690
13140716 1 18339643467883616216
13214271 11 18272369780793716703
13224815 77 18411987974316295335
13675066 3 18187087269080573787
14178342 30 18338527339117458393
14223421 5 18341052895787930134
14341114 176 18411985737129035682
14787075 74 18339640165090922602
14790565 3 18050014594947639924
15163728 17 14691189929019880809
15196674 1 18411420639180230811
15375358 24 18413110541697833299
15536298 74 18272376330249831326
15788980 27 17167859768361771669
16945 1 18267308633664624303
17349148 13 18260547844245275310
17492 89 18410012108956776131
1813 80 17168144512515476742
18186145 218 18411423903503023558
18522853 276 18412546492037592553
19050596 39 18410858775858764633
19784866 9 18412265021155473810
200 152 18202274819337965375
20715895 44 18116989984517715477
21033648 29 18262779827106925672
21267235 1 18410302427354843602
21421861 104 18042966467372004754
21637258 2 15647319828885568714
22182313 1 18189614934485510503
22854114 111 18409735070690792279
22854114 59 18343022189864506130
23402539 116 18272925046486162621
23557571 272 18059303161493107767
23559900 14 18343023255612643838
26918003 58 18409728456589012017
2748010 2 18410304609229794207
2838139 119 14835541671104639250
296302 2 16343984710473737934
335352 9 18411702045432157758
34934 24 18341610383102269379
350125 39 18410857681354741304
351380 180 18413386540454065762
3545911 37 18411703166439727155
42 15 18260548935156425576
5104073 3 18410294747868572393
59755656 215 18339930311854621398
633830 44 17988931080225984300
69090 78 18413386557386229218
7364860 26 18200601276388112774
9709674 26 18341058445033876271

>  <PUBCHEM_SHAPE_MULTIPOLES>
420.43
9.43
2.1
1.06
1.16
0.42
0.43
-0.59
-2.56
-0.22
0.02
0.09
-0.22
0.11

>  <PUBCHEM_SHAPE_SELFOVERLAP>
902.625

>  <PUBCHEM_SHAPE_VOLUME>
230.1

>  <PUBCHEM_COORDINATE_TYPE>
2
5
10

>  <Energy>
71.9966

$$$$
