6782
 OpenBabel05142611063D

 42 42  0  0  0  0  0  0  0  0999 V2000
   -2.2578   -0.1616   -0.1382 O   0  0  0  0  0  0  0  0  0  0  0  0
    2.1611   -0.2680   -0.0251 O   0  0  0  0  0  0  0  0  0  0  0  0
   -2.1763    0.7644    1.9785 O   0  0  0  0  0  0  0  0  0  0  0  0
    0.5703   -0.5443    1.6010 O   0  0  0  0  0  0  0  0  0  0  0  0
   -3.6448   -2.0374   -0.8149 C   0  0  0  0  0  0  0  0  0  0  0  0
    4.0108   -1.7662   -0.4452 C   0  0  0  0  0  0  0  0  0  0  0  0
   -3.1999   -1.1329    0.3442 C   0  0  0  0  0  0  0  0  0  0  0  0
    2.7822   -1.4791    0.4267 C   0  0  0  0  0  0  0  0  0  0  0  0
   -2.4592   -2.7903   -1.4209 C   0  0  0  0  0  0  0  0  0  0  0  0
   -4.7144   -3.0235   -0.3472 C   0  0  0  0  0  0  0  0  0  0  0  0
    5.0451   -0.6433   -0.3421 C   0  0  0  0  0  0  0  0  0  0  0  0
    4.6379   -3.1032   -0.0568 C   0  0  0  0  0  0  0  0  0  0  0  0
   -0.8654    1.6256    0.1946 C   0  0  0  0  0  0  0  0  0  0  0  0
    0.5044    1.3444    0.1242 C   0  0  0  0  0  0  0  0  0  0  0  0
   -1.8161    0.6922    0.8175 C   0  0  0  0  0  0  0  0  0  0  0  0
    1.0556    0.0833    0.6784 C   0  0  0  0  0  0  0  0  0  0  0  0
   -1.3715    2.8301   -0.3193 C   0  0  0  0  0  0  0  0  0  0  0  0
    1.3656    2.2927   -0.4563 C   0  0  0  0  0  0  0  0  0  0  0  0
   -0.5046    3.7587   -0.9066 C   0  0  0  0  0  0  0  0  0  0  0  0
    0.8613    3.4885   -0.9705 C   0  0  0  0  0  0  0  0  0  0  0  0
   -4.0619   -1.4100   -1.5747 H   0  0  0  0  0  0  0  0  0  0  0  0
    3.6843   -1.8182   -1.4628 H   0  0  0  0  0  0  0  0  0  0  0  0
   -4.0523   -0.6307    0.7517 H   0  0  0  0  0  0  0  0  0  0  0  0
   -2.7389   -1.7289    1.1039 H   0  0  0  0  0  0  0  0  0  0  0  0
    2.0882   -2.2896    0.3466 H   0  0  0  0  0  0  0  0  0  0  0  0
    3.0813   -1.3723    1.4485 H   0  0  0  0  0  0  0  0  0  0  0  0
   -2.0237   -3.4263   -0.6788 H   0  0  0  0  0  0  0  0  0  0  0  0
   -1.7278   -2.0880   -1.7626 H   0  0  0  0  0  0  0  0  0  0  0  0
   -2.7969   -3.3832   -2.2451 H   0  0  0  0  0  0  0  0  0  0  0  0
   -4.3077   -3.6565    0.4135 H   0  0  0  0  0  0  0  0  0  0  0  0
   -5.0349   -3.6211   -1.1748 H   0  0  0  0  0  0  0  0  0  0  0  0
   -5.5495   -2.4832    0.0472 H   0  0  0  0  0  0  0  0  0  0  0  0
    5.3904   -0.5680    0.6679 H   0  0  0  0  0  0  0  0  0  0  0  0
    4.5967    0.2828   -0.6357 H   0  0  0  0  0  0  0  0  0  0  0  0
    5.8717   -0.8594   -0.9863 H   0  0  0  0  0  0  0  0  0  0  0  0
    4.9676   -3.0604    0.9602 H   0  0  0  0  0  0  0  0  0  0  0  0
    5.4734   -3.3038   -0.6945 H   0  0  0  0  0  0  0  0  0  0  0  0
    3.9122   -3.8821   -0.1641 H   0  0  0  0  0  0  0  0  0  0  0  0
   -2.3823    3.0307   -0.2641 H   0  0  0  0  0  0  0  0  0  0  0  0
    2.3790    2.1030   -0.5026 H   0  0  0  0  0  0  0  0  0  0  0  0
   -0.8758    4.6414   -1.2913 H   0  0  0  0  0  0  0  0  0  0  0  0
    1.5018    4.1747   -1.3994 H   0  0  0  0  0  0  0  0  0  0  0  0
  1  7  1  0  0  0  0
  1 15  1  0  0  0  0
  2  8  1  0  0  0  0
  2 16  1  0  0  0  0
  3 15  2  0  0  0  0
  4 16  2  0  0  0  0
  5  7  1  0  0  0  0
  5  9  1  0  0  0  0
  5 10  1  0  0  0  0
  5 21  1  0  0  0  0
  6  8  1  0  0  0  0
  6 11  1  0  0  0  0
  6 12  1  0  0  0  0
  6 22  1  0  0  0  0
  7 23  1  0  0  0  0
  7 24  1  0  0  0  0
  8 25  1  0  0  0  0
  8 26  1  0  0  0  0
  9 27  1  0  0  0  0
  9 28  1  0  0  0  0
  9 29  1  0  0  0  0
 10 30  1  0  0  0  0
 10 31  1  0  0  0  0
 10 32  1  0  0  0  0
 11 33  1  0  0  0  0
 11 34  1  0  0  0  0
 11 35  1  0  0  0  0
 12 36  1  0  0  0  0
 12 37  1  0  0  0  0
 12 38  1  0  0  0  0
 13 14  1  0  0  0  0
 13 15  1  0  0  0  0
 13 17  2  0  0  0  0
 14 16  1  0  0  0  0
 14 18  2  0  0  0  0
 17 19  1  0  0  0  0
 17 39  1  0  0  0  0
 18 20  1  0  0  0  0
 18 40  1  0  0  0  0
 19 20  2  0  0  0  0
 19 41  1  0  0  0  0
 20 42  1  0  0  0  0
M  END
>  <PUBCHEM_COMPOUND_CID>
6782

>  <PUBCHEM_CONFORMER_RMSD>
0.8

>  <PUBCHEM_CONFORMER_DIVERSEORDER>
1
76
32
141
11
135
50
136
95
13
53
35
30
3
115
112
38
133
68
105
57
49
20
96
85
128
54
8
27
106
66
130
140
46
61
143
93
6
70
126
108
78
69
19
7
109
55
41
43
123
23
102
71
129
77
117
80
82
36
9
88
110
79
97
137
134
131
103
91
33
114
10
125
89
111
58
132
83
29
4
74
48
45
42
22
116
81
120
39
67
122
47
5
25
26
127
142
64
56
87
59
119
31
60
118
28
107
124
34
101
100
138
94
40
72
2
121
37
14
73
98
17
63
92
24
84
75
99
139
15
113
21
12
51
16
90
65
62
86
18
104
52
44

>  <PUBCHEM_MMFF94_PARTIAL_CHARGES>
18
1 -0.43
13 0.09
14 0.09
15 0.63
16 0.63
17 -0.15
18 -0.15
19 -0.15
2 -0.43
20 -0.15
3 -0.57
39 0.15
4 -0.57
40 0.15
41 0.15
42 0.15
7 0.28
8 0.28

>  <PUBCHEM_EFFECTIVE_ROTOR_COUNT>
8

>  <PUBCHEM_PHARMACOPHORE_FEATURES>
5
1 3 acceptor
1 4 acceptor
3 5 9 10 hydrophobe
3 6 11 12 hydrophobe
6 13 14 17 18 19 20 rings

>  <PUBCHEM_HEAVY_ATOM_COUNT>
20

>  <PUBCHEM_ATOM_DEF_STEREO_COUNT>
0

>  <PUBCHEM_ATOM_UDEF_STEREO_COUNT>
0

>  <PUBCHEM_BOND_DEF_STEREO_COUNT>
0

>  <PUBCHEM_BOND_UDEF_STEREO_COUNT>
0

>  <PUBCHEM_ISOTOPIC_ATOM_COUNT>
0

>  <PUBCHEM_COMPONENT_COUNT>
1

>  <PUBCHEM_CACTVS_TAUTO_COUNT>
1

>  <PUBCHEM_CONFORMER_ID>
00001A7E00000001

>  <PUBCHEM_MMFF94_ENERGY>
49.9665

>  <PUBCHEM_FEATURE_SELFOVERLAP>
25.373

>  <PUBCHEM_SHAPE_FINGERPRINT>
107951 10 16815201064618227659
11069576 57 17553178305594937735
11315621 246 18270695164693027510
11578080 2 17987221400276092793
12107183 9 18341345452851624203
12553582 1 18261107452730341947
12633257 1 15051450582648363495
13004483 165 18338505357411494911
13009979 54 18058746804583290571
14251757 5 18189884323777691277
14863182 85 17765141061811544040
17539 30 18264478495114280741
1813 80 18337662113539347267
19141452 34 18270407061879794769
20291156 8 18341890839786979367
20388580 30 18268428112985976823
20602899 9 17694771931166314881
20645477 70 17901654192782324303
20671657 53 18410292557715065863
21421566 26 18340206289093591574
21634736 98 18267586986316506006
23598288 3 17971775284159461988
23598291 2 18339934817554571329
3060560 45 17396972935141923981
4280585 95 18335969948370473658
46194498 28 17753030981120209655
531348 171 17831871149169114766
59124914 9 8646503920247768966

>  <PUBCHEM_SHAPE_MULTIPOLES>
388.11
8.2
5
1.2
4.39
2.08
0.29
-12.22
-1.31
-0.92
-2.16
-0.6
0.03
-1.05

>  <PUBCHEM_SHAPE_SELFOVERLAP>
787.88

>  <PUBCHEM_SHAPE_VOLUME>
227.5

>  <PUBCHEM_COORDINATE_TYPE>
2
5
10

>  <Energy>
28.484

$$$$
