5282364
 OpenBabel06012612503D

 51 54  0  0  1  0  0  0  0  0999 V2000
   -4.7677    1.7385   -0.2102 O   0  0  0  0  0  0  0  0  0  0  0  0
   -4.9494   -0.7586   -1.2294 O   0  0  0  0  0  0  0  0  0  0  0  0
    6.0210   -0.3704   -0.3792 O   0  0  0  0  0  0  0  0  0  0  0  0
   -2.4283    0.9071   -0.1457 C   0  0  1  0  0  0  0  0  0  0  0  0
   -1.8812   -0.4435    0.3610 C   0  0  2  0  0  0  0  0  0  0  0  0
   -0.4238   -0.6615   -0.0459 C   0  0  1  0  0  0  0  0  0  0  0  0
   -3.8842    0.7873    0.3606 C   0  0  2  0  0  0  0  0  0  0  0  0
   -2.9386   -1.4588   -0.0738 C   0  0  0  0  0  0  0  0  0  0  0  0
   -4.2788   -0.6886    0.0368 C   0  0  2  0  0  0  0  0  0  0  0  0
    0.4474    0.4518    0.6020 C   0  0  2  0  0  0  0  0  0  0  0  0
   -1.6121    2.0254    0.5189 C   0  0  0  0  0  0  0  0  0  0  0  0
   -0.1006    1.8679    0.2637 C   0  0  0  0  0  0  0  0  0  0  0  0
    0.1120   -2.0267    0.3898 C   0  0  0  0  0  0  0  0  0  0  0  0
   -2.3832    1.0953   -1.6822 C   0  0  0  0  0  0  0  0  0  0  0  0
    1.9239    0.2427    0.3068 C   0  0  0  0  0  0  0  0  0  0  0  0
    1.5206   -2.2275   -0.1630 C   0  0  0  0  0  0  0  0  0  0  0  0
   -5.2111   -1.2657    1.0964 C   0  0  0  0  0  0  0  0  0  0  0  0
    2.4260   -1.0355   -0.0133 C   0  0  0  0  0  0  0  0  0  0  0  0
    2.8407    1.3007    0.4331 C   0  0  0  0  0  0  0  0  0  0  0  0
    3.8051   -1.2146   -0.2517 C   0  0  0  0  0  0  0  0  0  0  0  0
    4.1932    1.1144    0.2065 C   0  0  0  0  0  0  0  0  0  0  0  0
    4.6895   -0.1402   -0.1419 C   0  0  0  0  0  0  0  0  0  0  0  0
    6.8775    0.7690   -0.2459 C   0  0  0  0  0  0  0  0  0  0  0  0
   -4.4742    2.6331    0.0232 H   0  0  0  0  0  0  0  0  0  0  0  0
   -4.3737   -0.3959   -1.9207 H   0  0  0  0  0  0  0  0  0  0  0  0
   -1.7692   -0.5265    1.4219 H   0  0  0  0  0  0  0  0  0  0  0  0
   -0.3765   -0.6241   -1.1142 H   0  0  0  0  0  0  0  0  0  0  0  0
   -3.9579    1.0067    1.4052 H   0  0  0  0  0  0  0  0  0  0  0  0
   -2.9360   -2.3098    0.5749 H   0  0  0  0  0  0  0  0  0  0  0  0
   -2.7633   -1.8340   -1.0604 H   0  0  0  0  0  0  0  0  0  0  0  0
    0.3718    0.3786    1.6668 H   0  0  0  0  0  0  0  0  0  0  0  0
   -1.7885    2.0013    1.5740 H   0  0  0  0  0  0  0  0  0  0  0  0
   -1.9231    2.9574    0.0953 H   0  0  0  0  0  0  0  0  0  0  0  0
    0.0896    2.0654   -0.7705 H   0  0  0  0  0  0  0  0  0  0  0  0
    0.3990    2.5588    0.9103 H   0  0  0  0  0  0  0  0  0  0  0  0
   -0.5299   -2.7966    0.0156 H   0  0  0  0  0  0  0  0  0  0  0  0
    0.1413   -2.0710    1.4585 H   0  0  0  0  0  0  0  0  0  0  0  0
   -2.9500    0.3196   -2.1533 H   0  0  0  0  0  0  0  0  0  0  0  0
   -1.3682    1.0494   -2.0175 H   0  0  0  0  0  0  0  0  0  0  0  0
   -2.8004    2.0470   -1.9373 H   0  0  0  0  0  0  0  0  0  0  0  0
    1.4409   -2.4577   -1.2049 H   0  0  0  0  0  0  0  0  0  0  0  0
    1.9615   -3.0177    0.4080 H   0  0  0  0  0  0  0  0  0  0  0  0
   -6.1153   -0.6943    1.1253 H   0  0  0  0  0  0  0  0  0  0  0  0
   -4.7327   -1.2251    2.0526 H   0  0  0  0  0  0  0  0  0  0  0  0
   -5.4394   -2.2828    0.8547 H   0  0  0  0  0  0  0  0  0  0  0  0
    2.4978    2.2367    0.7005 H   0  0  0  0  0  0  0  0  0  0  0  0
    4.1629   -2.1477   -0.5094 H   0  0  0  0  0  0  0  0  0  0  0  0
    4.8409    1.9128    0.2966 H   0  0  0  0  0  0  0  0  0  0  0  0
    7.8877    0.4818   -0.4509 H   0  0  0  0  0  0  0  0  0  0  0  0
    6.8107    1.1507    0.7515 H   0  0  0  0  0  0  0  0  0  0  0  0
    6.5744    1.5261   -0.9386 H   0  0  0  0  0  0  0  0  0  0  0  0
  1  7  1  0  0  0  0
  1 24  1  0  0  0  0
  2 25  1  0  0  0  0
  3 22  1  0  0  0  0
  3 23  1  0  0  0  0
  4  5  1  0  0  0  0
  4  7  1  0  0  0  0
  4 11  1  0  0  0  0
  4 14  1  6  0  0  0
  5  6  1  0  0  0  0
  5  8  1  0  0  0  0
  5 26  1  1  0  0  0
  6 10  1  0  0  0  0
  6 13  1  0  0  0  0
  6 27  1  6  0  0  0
  7  9  1  0  0  0  0
  7 28  1  1  0  0  0
  8  9  1  0  0  0  0
  8 29  1  0  0  0  0
  8 30  1  0  0  0  0
  9  2  1  6  0  0  0
  9 17  1  0  0  0  0
 10 12  1  0  0  0  0
 10 15  1  0  0  0  0
 10 31  1  1  0  0  0
 11 12  1  0  0  0  0
 11 32  1  0  0  0  0
 11 33  1  0  0  0  0
 12 34  1  0  0  0  0
 12 35  1  0  0  0  0
 13 16  1  0  0  0  0
 13 36  1  0  0  0  0
 13 37  1  0  0  0  0
 14 38  1  0  0  0  0
 14 39  1  0  0  0  0
 14 40  1  0  0  0  0
 15 18  2  0  0  0  0
 15 19  1  0  0  0  0
 16 18  1  0  0  0  0
 16 41  1  0  0  0  0
 16 42  1  0  0  0  0
 17 43  1  0  0  0  0
 17 44  1  0  0  0  0
 17 45  1  0  0  0  0
 18 20  1  0  0  0  0
 19 21  2  0  0  0  0
 19 46  1  0  0  0  0
 20 22  2  0  0  0  0
 20 47  1  0  0  0  0
 21 22  1  0  0  0  0
 21 48  1  0  0  0  0
 23 49  1  0  0  0  0
 23 50  1  0  0  0  0
 23 51  1  0  0  0  0
M  END
>  <PUBCHEM_COMPOUND_CID>
5282364

>  <PUBCHEM_CONFORMER_RMSD>
0.6

>  <PUBCHEM_CONFORMER_DIVERSEORDER>
1

>  <PUBCHEM_MMFF94_PARTIAL_CHARGES>
19
1 -0.68
10 0.14
15 -0.14
16 0.14
18 -0.14
19 -0.15
2 -0.68
20 -0.15
21 -0.15
22 0.08
23 0.28
3 -0.36
44 0.4
45 0.4
46 0.15
47 0.15
48 0.15
7 0.28
9 0.28

>  <PUBCHEM_EFFECTIVE_ROTOR_COUNT>
2.4

>  <PUBCHEM_PHARMACOPHORE_FEATURES>
9
1 1 acceptor
1 1 donor
1 2 acceptor
1 2 donor
1 3 acceptor
5 4 5 7 8 9 rings
6 15 18 19 20 21 22 rings
6 4 5 6 10 11 12 rings
6 6 10 13 15 16 18 rings

>  <PUBCHEM_HEAVY_ATOM_COUNT>
23

>  <PUBCHEM_ATOM_DEF_STEREO_COUNT>
6

>  <PUBCHEM_ATOM_UDEF_STEREO_COUNT>
0

>  <PUBCHEM_BOND_DEF_STEREO_COUNT>
0

>  <PUBCHEM_BOND_UDEF_STEREO_COUNT>
0

>  <PUBCHEM_ISOTOPIC_ATOM_COUNT>
0

>  <PUBCHEM_COMPONENT_COUNT>
1

>  <PUBCHEM_CACTVS_TAUTO_COUNT>
1

>  <PUBCHEM_CONFORMER_ID>
00509A3C00000001

>  <PUBCHEM_MMFF94_ENERGY>
97.4778

>  <PUBCHEM_FEATURE_SELFOVERLAP>
45.782

>  <PUBCHEM_SHAPE_FINGERPRINT>
10411042 1 17977949321692881027
10591671 39 18188223082304900166
11488393 25 17415860002313188518
11578080 2 17243003567106167815
11963148 33 18261950864054473787
12011746 2 18410004460230957823
12166972 35 17967537887301670492
12236239 1 17821446855292145008
12403259 415 18342170098803100240
12403814 3 17749106669480586013
12596602 18 15068629313781606996
12788726 201 17345476981162507448
128620 24 18259988162572081687
13140716 1 18050291672056427835
13224815 77 18410289185928173227
13288520 33 18341614836962132873
13402501 40 18410857685200932578
13533116 47 16950834831072913354
13862211 1 18412820304771892362
14787075 74 18410011069568519187
14790565 3 18411989073881255424
15183329 4 18340213999594044614
15196674 1 18411419479586579130
16988056 13 14000926187909064045
17349148 13 18333730208808890960
18681886 176 18411696630254130280
19489759 90 16008745809856252516
19591789 44 18268428104158600459
200 152 18060418010343173954
21236236 1 18341616996940630745
21267235 1 18339931501634324203
21279426 13 18267870493213460190
21709351 56 18408599266579134292
221357 26 18273494568066737152
23402539 116 18413666911692798548
23557571 272 18412552006617338598
23559900 14 18342731944855201864
2871803 45 18410006628588100827
3004659 81 18335143047714076198
335352 9 18412545431022460485
34934 24 18338514123993257225
350125 39 18411421722060972888
3545911 37 18411139129901784552
4214541 1 18411982446814990545
4325135 7 18412825802298188143
474229 33 18410293627288561930
5104073 3 18338516339595119579
542803 24 17822012008231525108
59755656 215 18411421696233192454
59755656 520 17530962510221291946
9709674 26 18340493278692726791

>  <PUBCHEM_SHAPE_MULTIPOLES>
455.72
12.72
2.1
0.91
9.79
0.11
0.2
-0.41
0.98
-0.62
-0.1
-0.78
-0.09
0.5

>  <PUBCHEM_SHAPE_SELFOVERLAP>
985.767

>  <PUBCHEM_SHAPE_VOLUME>
249.5

>  <PUBCHEM_COORDINATE_TYPE>
2
5
10

>  <Energy>
104.449

$$$$
