14855
 OpenBabel05142611063D

 16 16  0  0  0  0  0  0  0  0999 V2000
    3.2108   -0.4318    0.0005 Cl  0  0  0  0  0  0  0  0  0  0  0  0
   -2.4915    0.9292   -0.0001 O   0  0  0  0  0  0  0  0  0  0  0  0
   -0.7846   -0.7990   -0.0004 C   0  0  0  0  0  0  0  0  0  0  0  0
   -1.1810    0.5444   -0.0006 C   0  0  0  0  0  0  0  0  0  0  0  0
    0.5903   -1.0872   -0.0003 C   0  0  0  0  0  0  0  0  0  0  0  0
   -1.7761   -1.9249    0.0002 C   0  0  0  0  0  0  0  0  0  0  0  0
   -0.2402    1.5735   -0.0010 C   0  0  0  0  0  0  0  0  0  0  0  0
    1.5313   -0.0554   -0.0006 C   0  0  0  0  0  0  0  0  0  0  0  0
    1.1215    1.2748   -0.0009 C   0  0  0  0  0  0  0  0  0  0  0  0
   -3.1696    0.2826    0.0001 H   0  0  0  0  0  0  0  0  0  0  0  0
    0.9074   -2.0692    0.0001 H   0  0  0  0  0  0  0  0  0  0  0  0
   -2.7689   -1.5259   -0.0000 H   0  0  0  0  0  0  0  0  0  0  0  0
   -1.6332   -2.5255    0.8741 H   0  0  0  0  0  0  0  0  0  0  0  0
   -1.6332   -2.5264   -0.8732 H   0  0  0  0  0  0  0  0  0  0  0  0
   -0.5522    2.5573   -0.0013 H   0  0  0  0  0  0  0  0  0  0  0  0
    1.8204    2.0342   -0.0010 H   0  0  0  0  0  0  0  0  0  0  0  0
  1  8  1  0  0  0  0
  2  4  1  0  0  0  0
  2 10  1  0  0  0  0
  3  4  2  0  0  0  0
  3  5  1  0  0  0  0
  3  6  1  0  0  0  0
  4  7  1  0  0  0  0
  5  8  2  0  0  0  0
  5 11  1  0  0  0  0
  6 12  1  0  0  0  0
  6 13  1  0  0  0  0
  6 14  1  0  0  0  0
  7  9  2  0  0  0  0
  7 15  1  0  0  0  0
  8  9  1  0  0  0  0
  9 16  1  0  0  0  0
M  END
>  <PUBCHEM_COMPOUND_CID>
14855

>  <PUBCHEM_CONFORMER_RMSD>
0.4

>  <PUBCHEM_CONFORMER_DIVERSEORDER>
1

>  <PUBCHEM_MMFF94_PARTIAL_CHARGES>
13
1 -0.18
10 0.15
14 0.15
15 0.15
16 0.45
2 -0.53
3 -0.14
4 0.08
5 -0.15
6 0.14
7 -0.15
8 0.18
9 -0.15

>  <PUBCHEM_EFFECTIVE_ROTOR_COUNT>
0

>  <PUBCHEM_PHARMACOPHORE_FEATURES>
2
1 2 donor
6 3 4 5 7 8 9 rings

>  <PUBCHEM_HEAVY_ATOM_COUNT>
9

>  <PUBCHEM_ATOM_DEF_STEREO_COUNT>
0

>  <PUBCHEM_ATOM_UDEF_STEREO_COUNT>
0

>  <PUBCHEM_BOND_DEF_STEREO_COUNT>
0

>  <PUBCHEM_BOND_UDEF_STEREO_COUNT>
0

>  <PUBCHEM_ISOTOPIC_ATOM_COUNT>
0

>  <PUBCHEM_COMPONENT_COUNT>
1

>  <PUBCHEM_CACTVS_TAUTO_COUNT>
3

>  <PUBCHEM_CONFORMER_ID>
00003A0700000001

>  <PUBCHEM_MMFF94_ENERGY>
20.3299

>  <PUBCHEM_FEATURE_SELFOVERLAP>
10.148

>  <PUBCHEM_SHAPE_FINGERPRINT>
12423570 1 12857308454148267807
14128692 85 18337397161654868812
15310529 11 16588304926039884064
16714656 1 18338237059573504068
16945 1 18338517439222849380
18185500 45 18407757036482499322
193761 8 18122344837408131653
20871998 184 18273497896455609670
21040471 1 18338517421932197413
23235685 24 18340482249211098088
23402655 69 17978772529806233805
23552423 10 18188209930719218710
2748010 2 18339076128526495684
5084963 1 18128822017515683618

>  <PUBCHEM_SHAPE_MULTIPOLES>
181.22
3.43
1.8
0.61
1.65
0.06
0
0.68
0
-0.72
0
0.04
0.01
0

>  <PUBCHEM_SHAPE_SELFOVERLAP>
367.309

>  <PUBCHEM_SHAPE_VOLUME>
107.6

>  <PUBCHEM_COORDINATE_TYPE>
2
5
10

>  <Energy>
7.11275

$$$$
