251869
 OpenBabel06012612503D

 42 45  0  0  1  0  0  0  0  0999 V2000
   -5.4491   -1.0977    0.0889 O   0  0  0  0  0  0  0  0  0  0  0  0
    5.8751   -0.1952   -0.3864 O   0  0  0  0  0  0  0  0  0  0  0  0
   -2.0199   -0.3786    0.3367 C   0  0  2  0  0  0  0  0  0  0  0  0
   -2.5775    0.9522   -0.2157 C   0  0  2  0  0  0  0  0  0  0  0  0
   -0.5583   -0.5936   -0.0586 C   0  0  1  0  0  0  0  0  0  0  0  0
    0.3007    0.5550    0.5528 C   0  0  2  0  0  0  0  0  0  0  0  0
   -1.7738    2.0964    0.4132 C   0  0  0  0  0  0  0  0  0  0  0  0
   -0.2616    1.9466    0.1576 C   0  0  0  0  0  0  0  0  0  0  0  0
   -3.0553   -1.4221   -0.0721 C   0  0  0  0  0  0  0  0  0  0  0  0
   -4.0472    0.8754    0.2358 C   0  0  0  0  0  0  0  0  0  0  0  0
   -0.0109   -1.9369    0.4278 C   0  0  0  0  0  0  0  0  0  0  0  0
   -2.5447    1.0787   -1.7591 C   0  0  0  0  0  0  0  0  0  0  0  0
   -4.3262   -0.6106    0.0826 C   0  0  0  0  0  0  0  0  0  0  0  0
    1.7856    0.3494    0.2618 C   0  0  0  0  0  0  0  0  0  0  0  0
    1.3955   -2.1523   -0.1217 C   0  0  0  0  0  0  0  0  0  0  0  0
    2.2909   -0.9417   -0.0109 C   0  0  0  0  0  0  0  0  0  0  0  0
    2.6990    1.4160    0.3483 C   0  0  0  0  0  0  0  0  0  0  0  0
    3.6665   -1.1251   -0.2423 C   0  0  0  0  0  0  0  0  0  0  0  0
    4.0641    1.2207    0.1258 C   0  0  0  0  0  0  0  0  0  0  0  0
    4.5374   -0.0458   -0.1723 C   0  0  0  0  0  0  0  0  0  0  0  0
    6.2255   -1.0400   -0.5901 H   0  0  0  0  0  0  0  0  0  0  0  0
   -1.9191   -0.4230    1.4010 H   0  0  0  0  0  0  0  0  0  0  0  0
   -0.5064   -0.5928   -1.1273 H   0  0  0  0  0  0  0  0  0  0  0  0
    0.2252    0.5227    1.6196 H   0  0  0  0  0  0  0  0  0  0  0  0
   -1.9471    2.1009    1.4691 H   0  0  0  0  0  0  0  0  0  0  0  0
   -2.0961    3.0129   -0.0352 H   0  0  0  0  0  0  0  0  0  0  0  0
   -0.0778    2.1020   -0.8850 H   0  0  0  0  0  0  0  0  0  0  0  0
    0.2335    2.6705    0.7705 H   0  0  0  0  0  0  0  0  0  0  0  0
   -3.0437   -2.2695    0.5812 H   0  0  0  0  0  0  0  0  0  0  0  0
   -2.9076   -1.8456   -1.0436 H   0  0  0  0  0  0  0  0  0  0  0  0
   -4.6824    1.4607   -0.3958 H   0  0  0  0  0  0  0  0  0  0  0  0
   -4.2247    1.2563    1.2198 H   0  0  0  0  0  0  0  0  0  0  0  0
   -0.6496   -2.7249    0.0873 H   0  0  0  0  0  0  0  0  0  0  0  0
    0.0243   -1.9372    1.4972 H   0  0  0  0  0  0  0  0  0  0  0  0
   -1.5289    1.1333   -2.0909 H   0  0  0  0  0  0  0  0  0  0  0  0
   -3.0649    1.9655   -2.0554 H   0  0  0  0  0  0  0  0  0  0  0  0
   -3.0175    0.2246   -2.1971 H   0  0  0  0  0  0  0  0  0  0  0  0
    1.3158   -2.4183   -1.1550 H   0  0  0  0  0  0  0  0  0  0  0  0
    1.8437   -2.9236    0.4692 H   0  0  0  0  0  0  0  0  0  0  0  0
    2.3540    2.3604    0.5805 H   0  0  0  0  0  0  0  0  0  0  0  0
    4.0297   -2.0652   -0.4648 H   0  0  0  0  0  0  0  0  0  0  0  0
    4.7175    2.0175    0.1833 H   0  0  0  0  0  0  0  0  0  0  0  0
  1 13  2  0  0  0  0
  2 20  1  0  0  0  0
  2 21  1  0  0  0  0
  3  4  1  0  0  0  0
  3  5  1  0  0  0  0
  3  9  1  0  0  0  0
  3 22  1  1  0  0  0
  4  7  1  0  0  0  0
  4 10  1  0  0  0  0
  4 12  1  6  0  0  0
  5  6  1  0  0  0  0
  5 11  1  0  0  0  0
  5 23  1  6  0  0  0
  6  8  1  0  0  0  0
  6 14  1  0  0  0  0
  6 24  1  1  0  0  0
  7  8  1  0  0  0  0
  7 25  1  0  0  0  0
  7 26  1  0  0  0  0
  8 27  1  0  0  0  0
  8 28  1  0  0  0  0
  9 13  1  0  0  0  0
  9 29  1  0  0  0  0
  9 30  1  0  0  0  0
 10 13  1  0  0  0  0
 10 31  1  0  0  0  0
 10 32  1  0  0  0  0
 11 15  1  0  0  0  0
 11 33  1  0  0  0  0
 11 34  1  0  0  0  0
 12 35  1  0  0  0  0
 12 36  1  0  0  0  0
 12 37  1  0  0  0  0
 14 16  2  0  0  0  0
 14 17  1  0  0  0  0
 15 16  1  0  0  0  0
 15 38  1  0  0  0  0
 15 39  1  0  0  0  0
 16 18  1  0  0  0  0
 17 19  2  0  0  0  0
 17 40  1  0  0  0  0
 18 20  2  0  0  0  0
 18 41  1  0  0  0  0
 19 20  1  0  0  0  0
 19 42  1  0  0  0  0
M  END
>  <PUBCHEM_COMPOUND_CID>
251869

>  <PUBCHEM_CONFORMER_RMSD>
0.6

>  <PUBCHEM_CONFORMER_DIVERSEORDER>
1

>  <PUBCHEM_MMFF94_PARTIAL_CHARGES>
17
1 -0.57
10 0.06
13 0.45
14 -0.14
15 0.14
16 -0.14
17 -0.15
18 -0.15
19 -0.15
2 -0.53
20 0.08
39 0.15
40 0.15
41 0.15
42 0.45
6 0.14
9 0.06

>  <PUBCHEM_EFFECTIVE_ROTOR_COUNT>
1.2

>  <PUBCHEM_PHARMACOPHORE_FEATURES>
6
1 1 acceptor
1 2 donor
5 3 4 9 10 13 rings
6 14 16 17 18 19 20 rings
6 3 4 5 6 7 8 rings
6 5 6 11 14 15 16 rings

>  <PUBCHEM_HEAVY_ATOM_COUNT>
20

>  <PUBCHEM_ATOM_DEF_STEREO_COUNT>
4

>  <PUBCHEM_ATOM_UDEF_STEREO_COUNT>
0

>  <PUBCHEM_BOND_DEF_STEREO_COUNT>
0

>  <PUBCHEM_BOND_UDEF_STEREO_COUNT>
0

>  <PUBCHEM_ISOTOPIC_ATOM_COUNT>
0

>  <PUBCHEM_COMPONENT_COUNT>
1

>  <PUBCHEM_CACTVS_TAUTO_COUNT>
27

>  <PUBCHEM_CONFORMER_ID>
0003D7DD00000001

>  <PUBCHEM_MMFF94_ENERGY>
60.5224

>  <PUBCHEM_FEATURE_SELFOVERLAP>
30.549

>  <PUBCHEM_SHAPE_FINGERPRINT>
10366900 7 18040156227241177555
10498660 4 18261106335885870340
10616163 171 18341614793643344247
10967382 1 18411418440167472834
11578080 2 17170103734213326999
12011746 2 18409724084887207231
12236239 1 17676487237906754792
12403259 226 18264482902294097092
12403259 415 18409721881189572232
12403814 3 17821446846617885957
12553582 1 18271792541214985177
12670546 56 16226036774342893920
128620 24 18407760330611593701
13140716 1 18051122893687197864
13224815 77 18409444765255987784
13288520 33 18413392046797291869
13583140 156 16660649570048907728
13862211 1 18411414033515599122
14787075 74 18336264638776833699
15196674 1 18411419479533721152
15536298 74 18343582940910638416
16945 1 18194394485751021057
17349148 13 18333728009833043208
17492 89 18266176128104264642
18186145 218 18410006620346312876
19141452 34 18059576949000617543
19591789 44 18268146633403081987
200 152 17988924465754509824
20645477 70 18271248223194256198
21267235 1 18412554227173706099
221357 26 18272089383463478564
221490 88 18339930290438014674
23402539 116 18412821391503736654
23557571 272 18412269423512665933
23559900 14 18343016735952742872
25 1 18410290268645060050
2748010 2 18339634667537909088
2871803 45 18409162208153337735
3004659 81 18261680277847531662
3323516 105 18413105073814127513
335352 9 18411983550478927172
34934 24 18338231558152875625
350125 39 18410858745831274144
3545911 37 18409450275704342238
4028521 119 18334571317649737029
4214541 1 18412265008355195017
474 4 17096095830476977612
474229 33 18410012156369513202
4990 188 18060145327576046398
5104073 3 18339360768820114930
59755656 215 18410014320874969926
69090 78 18342737446507561718
9709674 26 18411989031000115078

>  <PUBCHEM_SHAPE_MULTIPOLES>
399.85
9.84
2.11
0.84
3.08
0.05
0.26
0.86
0.82
-0.26
-0.11
-0.37
-0.18
0.38

>  <PUBCHEM_SHAPE_SELFOVERLAP>
875.579

>  <PUBCHEM_SHAPE_VOLUME>
216.6

>  <PUBCHEM_COORDINATE_TYPE>
2
5
10

>  <Energy>
50.5972

$$$$
