242332
 OpenBabel06012612503D

 53 56  0  0  1  0  0  0  0  0999 V2000
   -5.2231   -1.1162   -0.1763 O   0  0  0  0  0  0  0  0  0  0  0  0
    5.9154   -0.0193   -0.1490 O   0  0  0  0  0  0  0  0  0  0  0  0
    0.1623   -0.4347   -0.3052 C   0  0  1  0  0  0  0  0  0  0  0  0
   -0.6504    0.7923    0.2244 C   0  0  2  0  0  0  0  0  0  0  0  0
   -2.0675    0.7234   -0.3545 C   0  0  1  0  0  0  0  0  0  0  0  0
    1.6532   -0.4134    0.1994 C   0  0  2  0  0  0  0  0  0  0  0  0
   -2.8129   -0.5652    0.0476 C   0  0  2  0  0  0  0  0  0  0  0  0
    2.2747    0.9527   -0.2389 C   0  0  1  0  0  0  0  0  0  0  0  0
   -0.5797   -1.7757   -0.0588 C   0  0  0  0  0  0  0  0  0  0  0  0
   -2.0451   -1.7604   -0.5318 C   0  0  0  0  0  0  0  0  0  0  0  0
    0.0394    2.1158   -0.1347 C   0  0  0  0  0  0  0  0  0  0  0  0
   -3.0641    1.8310   -0.0208 C   0  0  0  0  0  0  0  0  0  0  0  0
   -4.1713   -0.2846   -0.6267 C   0  0  2  0  0  0  0  0  0  0  0  0
    1.4985    2.1531    0.3134 C   0  0  0  0  0  0  0  0  0  0  0  0
    2.4769   -1.5461   -0.4778 C   0  0  0  0  0  0  0  0  0  0  0  0
   -4.4361    1.2063   -0.3353 C   0  0  0  0  0  0  0  0  0  0  0  0
    3.7705    1.0584    0.0838 C   0  0  0  0  0  0  0  0  0  0  0  0
    1.7174   -0.6144    1.7353 C   0  0  0  0  0  0  0  0  0  0  0  0
   -2.9888   -0.7574    1.5752 C   0  0  0  0  0  0  0  0  0  0  0  0
    3.9801   -1.4551   -0.2061 C   0  0  0  0  0  0  0  0  0  0  0  0
    4.5534   -0.0857   -0.5589 C   0  0  2  0  0  0  0  0  0  0  0  0
   -5.0138   -2.0412   -0.3801 H   0  0  0  0  0  0  0  0  0  0  0  0
    6.2787    0.8516   -0.3738 H   0  0  0  0  0  0  0  0  0  0  0  0
    0.2281   -0.3489   -1.3697 H   0  0  0  0  0  0  0  0  0  0  0  0
   -0.7001    0.7554    1.2926 H   0  0  0  0  0  0  0  0  0  0  0  0
   -1.8121    0.8024   -1.3906 H   0  0  0  0  0  0  0  0  0  0  0  0
    2.1854    0.9795   -1.3048 H   0  0  0  0  0  0  0  0  0  0  0  0
   -0.5643   -1.9838    0.9906 H   0  0  0  0  0  0  0  0  0  0  0  0
   -0.0722   -2.5263   -0.6279 H   0  0  0  0  0  0  0  0  0  0  0  0
   -2.0647   -1.7010   -1.5999 H   0  0  0  0  0  0  0  0  0  0  0  0
   -2.5164   -2.6584   -0.1904 H   0  0  0  0  0  0  0  0  0  0  0  0
   -0.4865    2.9173    0.3407 H   0  0  0  0  0  0  0  0  0  0  0  0
    0.0232    2.2131   -1.2002 H   0  0  0  0  0  0  0  0  0  0  0  0
   -2.8909    2.6941   -0.6290 H   0  0  0  0  0  0  0  0  0  0  0  0
   -2.9859    2.1628    0.9935 H   0  0  0  0  0  0  0  0  0  0  0  0
   -4.1330   -0.5029   -1.6735 H   0  0  0  0  0  0  0  0  0  0  0  0
    1.9506    3.0554   -0.0421 H   0  0  0  0  0  0  0  0  0  0  0  0
    1.5274    2.1146    1.3823 H   0  0  0  0  0  0  0  0  0  0  0  0
    2.3201   -1.4930   -1.5349 H   0  0  0  0  0  0  0  0  0  0  0  0
    2.1380   -2.4723   -0.0628 H   0  0  0  0  0  0  0  0  0  0  0  0
   -4.8724    1.6798   -1.1899 H   0  0  0  0  0  0  0  0  0  0  0  0
   -5.1177    1.3299    0.4802 H   0  0  0  0  0  0  0  0  0  0  0  0
    3.9028    1.0199    1.1449 H   0  0  0  0  0  0  0  0  0  0  0  0
    4.1382    1.9840   -0.3073 H   0  0  0  0  0  0  0  0  0  0  0  0
    1.1556    0.1567    2.2197 H   0  0  0  0  0  0  0  0  0  0  0  0
    2.7365   -0.5698    2.0586 H   0  0  0  0  0  0  0  0  0  0  0  0
    1.3046   -1.5687    1.9877 H   0  0  0  0  0  0  0  0  0  0  0  0
   -2.0362   -0.9506    2.0225 H   0  0  0  0  0  0  0  0  0  0  0  0
   -3.6428   -1.5844    1.7576 H   0  0  0  0  0  0  0  0  0  0  0  0
   -3.4091    0.1301    2.0003 H   0  0  0  0  0  0  0  0  0  0  0  0
    4.4805   -2.1982   -0.7912 H   0  0  0  0  0  0  0  0  0  0  0  0
    4.1323   -1.6123    0.8412 H   0  0  0  0  0  0  0  0  0  0  0  0
    4.4761    0.0295   -1.6199 H   0  0  0  0  0  0  0  0  0  0  0  0
  1 13  1  0  0  0  0
  1 22  1  0  0  0  0
  2 21  1  0  0  0  0
  2 23  1  0  0  0  0
  3  4  1  0  0  0  0
  3  6  1  0  0  0  0
  3  9  1  0  0  0  0
  3 24  1  6  0  0  0
  4  5  1  0  0  0  0
  4 11  1  0  0  0  0
  4 25  1  1  0  0  0
  5  7  1  0  0  0  0
  5 12  1  0  0  0  0
  5 26  1  6  0  0  0
  6  8  1  0  0  0  0
  6 15  1  0  0  0  0
  6 18  1  1  0  0  0
  7 10  1  0  0  0  0
  7 13  1  0  0  0  0
  7 19  1  1  0  0  0
  8 14  1  0  0  0  0
  8 17  1  0  0  0  0
  8 27  1  6  0  0  0
  9 10  1  0  0  0  0
  9 28  1  0  0  0  0
  9 29  1  0  0  0  0
 10 30  1  0  0  0  0
 10 31  1  0  0  0  0
 11 14  1  0  0  0  0
 11 32  1  0  0  0  0
 11 33  1  0  0  0  0
 12 16  1  0  0  0  0
 12 34  1  0  0  0  0
 12 35  1  0  0  0  0
 13 16  1  0  0  0  0
 13 36  1  6  0  0  0
 14 37  1  0  0  0  0
 14 38  1  0  0  0  0
 15 20  1  0  0  0  0
 15 39  1  0  0  0  0
 15 40  1  0  0  0  0
 16 41  1  0  0  0  0
 16 42  1  0  0  0  0
 17 21  1  0  0  0  0
 17 43  1  0  0  0  0
 17 44  1  0  0  0  0
 18 45  1  0  0  0  0
 18 46  1  0  0  0  0
 18 47  1  0  0  0  0
 19 48  1  0  0  0  0
 19 49  1  0  0  0  0
 19 50  1  0  0  0  0
 20 21  1  0  0  0  0
 20 51  1  0  0  0  0
 20 52  1  0  0  0  0
 21 53  1  6  0  0  0
M  END
>  <PUBCHEM_COMPOUND_CID>
242332

>  <PUBCHEM_CONFORMER_RMSD>
0.6

>  <PUBCHEM_CONFORMER_DIVERSEORDER>
1

>  <PUBCHEM_MMFF94_PARTIAL_CHARGES>
6
1 -0.68
13 0.28
2 -0.68
21 0.28
52 0.4
53 0.4

>  <PUBCHEM_EFFECTIVE_ROTOR_COUNT>
2.2

>  <PUBCHEM_PHARMACOPHORE_FEATURES>
8
1 1 acceptor
1 1 donor
1 2 acceptor
1 2 donor
5 5 7 12 13 16 rings
6 3 4 5 7 9 10 rings
6 3 4 6 8 11 14 rings
6 6 8 15 17 20 21 rings

>  <PUBCHEM_HEAVY_ATOM_COUNT>
21

>  <PUBCHEM_ATOM_DEF_STEREO_COUNT>
8

>  <PUBCHEM_ATOM_UDEF_STEREO_COUNT>
0

>  <PUBCHEM_BOND_DEF_STEREO_COUNT>
0

>  <PUBCHEM_BOND_UDEF_STEREO_COUNT>
0

>  <PUBCHEM_ISOTOPIC_ATOM_COUNT>
0

>  <PUBCHEM_COMPONENT_COUNT>
1

>  <PUBCHEM_CACTVS_TAUTO_COUNT>
1

>  <PUBCHEM_CONFORMER_ID>
0003B29C00000001

>  <PUBCHEM_MMFF94_ENERGY>
74.8787

>  <PUBCHEM_FEATURE_SELFOVERLAP>
40.687

>  <PUBCHEM_SHAPE_FINGERPRINT>
10366900 7 17676483969183487113
10967382 1 18411698794162974452
11132069 177 18341044194500764456
11471102 20 18411980282378053876
12011746 2 18408599258389814381
12236239 1 17967249780684100390
12403259 226 18341324595999784841
12403259 415 18131342012657551617
12788726 201 18195242226539149337
13140716 1 18124601039520837763
13221675 6 18408322206854806954
13224815 77 18186799179706527745
13288520 33 18343303660482874588
13862211 1 18411416207291108382
14790565 3 17476366002308835585
15099037 51 18411417297975197541
15196674 1 18411418384311831461
15309172 13 18271814527184507763
15375358 24 18412544301672966750
15536298 74 18343016722508424648
15788980 27 18409450280373836446
15848702 151 17774731874112629278
1601671 61 18411136900977554540
16752209 62 18339070506593763681
16945 1 18266463302533393941
17349148 13 17704070707318654063
17804303 29 18413389847536984325
18186145 218 17822005393902677101
19591789 44 18338796715081514982
19862831 5 18334013878202646900
200 152 18060136535466741885
20645477 70 18410289250310523732
21029758 11 18343581832630072273
21033648 29 17560785620319796473
21267235 1 18411707598883094910
21279426 13 18266741268505824662
21452121 103 18200581614534286128
221357 26 18412258437482389757
221490 88 18264775534983614306
23402539 116 18342171151032755180
23493267 7 18113620075271127059
23557571 272 18273221876498418756
23559900 14 18272361001332379336
2748010 2 18410005524939917349
3004659 81 18261676961842687318
335352 9 18411699855051844300
34934 24 18410288108334428542
350125 39 18411984646466194817
3545911 37 18411700997460195743
4214541 1 18411699872411002725
4340502 62 16443636704916033689
474 4 17458914854795241444
4921388 177 16298400088273754785
5104073 3 18411136909356181576
542803 24 14201397170635671974
633830 44 17749669692400893956
69090 78 18343017808955828647
7364860 26 18199464535967997160
9709674 26 18336546139750026051

>  <PUBCHEM_SHAPE_MULTIPOLES>
420.43
9.77
2.1
0.97
2.3
0.45
0.41
-0.83
-1.3
-0.27
-0.09
-0.13
-0.21
0.21

>  <PUBCHEM_SHAPE_SELFOVERLAP>
890.168

>  <PUBCHEM_SHAPE_VOLUME>
233.3

>  <PUBCHEM_COORDINATE_TYPE>
2
5
10

>  <Energy>
74.9003

$$$$
