4764
 OpenBabel06012612503D

 38 41  0  0  0  0  0  0  0  0999 V2000
    0.0776   -0.6850    1.6930 O   0  0  0  0  0  0  0  0  0  0  0  0
    0.1190   -2.6954    2.8170 O   0  0  0  0  0  0  0  0  0  0  0  0
    4.9010    2.6576   -0.3451 O   0  0  0  0  0  0  0  0  0  0  0  0
   -4.5881    3.1163   -0.3592 O   0  0  0  0  0  0  0  0  0  0  0  0
    0.0045   -0.2082    0.3123 C   0  0  0  0  0  0  0  0  0  0  0  0
   -0.1606   -1.5007   -0.4381 C   0  0  0  0  0  0  0  0  0  0  0  0
    1.3278    0.5430    0.0952 C   0  0  0  0  0  0  0  0  0  0  0  0
   -1.2221    0.7037    0.1387 C   0  0  0  0  0  0  0  0  0  0  0  0
   -0.1134   -2.5563    0.4492 C   0  0  0  0  0  0  0  0  0  0  0  0
    0.0482   -2.0405    1.7943 C   0  0  0  0  0  0  0  0  0  0  0  0
   -0.3480   -1.7554   -1.7939 C   0  0  0  0  0  0  0  0  0  0  0  0
    1.6496    1.6366    0.9283 C   0  0  0  0  0  0  0  0  0  0  0  0
   -1.4377    1.3895   -1.0748 C   0  0  0  0  0  0  0  0  0  0  0  0
    2.2582    0.1827   -0.8960 C   0  0  0  0  0  0  0  0  0  0  0  0
   -2.1671    0.8707    1.1670 C   0  0  0  0  0  0  0  0  0  0  0  0
   -0.2273   -3.8796    0.0533 C   0  0  0  0  0  0  0  0  0  0  0  0
   -0.4645   -3.0806   -2.2244 C   0  0  0  0  0  0  0  0  0  0  0  0
   -0.4030   -4.1381   -1.3056 C   0  0  0  0  0  0  0  0  0  0  0  0
    2.8476    2.3382    0.7714 C   0  0  0  0  0  0  0  0  0  0  0  0
   -2.5639    2.1951   -1.2592 C   0  0  0  0  0  0  0  0  0  0  0  0
    3.4558    0.8845   -1.0548 C   0  0  0  0  0  0  0  0  0  0  0  0
   -3.2862    1.6867    0.9867 C   0  0  0  0  0  0  0  0  0  0  0  0
    3.7399    1.9560   -0.2193 C   0  0  0  0  0  0  0  0  0  0  0  0
   -3.4782    2.3371   -0.2243 C   0  0  0  0  0  0  0  0  0  0  0  0
    5.0772    3.3783    0.2271 H   0  0  0  0  0  0  0  0  0  0  0  0
   -4.7476    3.5691   -1.1639 H   0  0  0  0  0  0  0  0  0  0  0  0
   -0.4001   -0.9781   -2.4707 H   0  0  0  0  0  0  0  0  0  0  0  0
    0.9878    1.9230    1.6666 H   0  0  0  0  0  0  0  0  0  0  0  0
   -0.7515    1.2944   -1.8397 H   0  0  0  0  0  0  0  0  0  0  0  0
    2.0525   -0.6149   -1.5176 H   0  0  0  0  0  0  0  0  0  0  0  0
   -2.0318    0.3836    2.0667 H   0  0  0  0  0  0  0  0  0  0  0  0
   -0.1835   -4.6478    0.7411 H   0  0  0  0  0  0  0  0  0  0  0  0
   -0.5970   -3.2824   -3.2277 H   0  0  0  0  0  0  0  0  0  0  0  0
   -0.4882   -5.1118   -1.6365 H   0  0  0  0  0  0  0  0  0  0  0  0
    3.0671    3.1356    1.3886 H   0  0  0  0  0  0  0  0  0  0  0  0
   -2.7149    2.6806   -2.1573 H   0  0  0  0  0  0  0  0  0  0  0  0
    4.1257    0.6077   -1.7894 H   0  0  0  0  0  0  0  0  0  0  0  0
   -3.9684    1.8058    1.7518 H   0  0  0  0  0  0  0  0  0  0  0  0
  1  5  1  0  0  0  0
  1 10  1  0  0  0  0
  2 10  2  0  0  0  0
  3 23  1  0  0  0  0
  3 25  1  0  0  0  0
  4 24  1  0  0  0  0
  4 26  1  0  0  0  0
  5  6  1  0  0  0  0
  5  7  1  0  0  0  0
  5  8  1  0  0  0  0
  6  9  1  0  0  0  0
  6 11  2  0  0  0  0
  7 12  2  0  0  0  0
  7 14  1  0  0  0  0
  8 13  2  0  0  0  0
  8 15  1  0  0  0  0
  9 10  1  0  0  0  0
  9 16  2  0  0  0  0
 11 17  1  0  0  0  0
 11 27  1  0  0  0  0
 12 19  1  0  0  0  0
 12 28  1  0  0  0  0
 13 20  1  0  0  0  0
 13 29  1  0  0  0  0
 14 21  2  0  0  0  0
 14 30  1  0  0  0  0
 15 22  2  0  0  0  0
 15 31  1  0  0  0  0
 16 18  1  0  0  0  0
 16 32  1  0  0  0  0
 17 18  2  0  0  0  0
 17 33  1  0  0  0  0
 18 34  1  0  0  0  0
 19 23  2  0  0  0  0
 19 35  1  0  0  0  0
 20 24  2  0  0  0  0
 20 36  1  0  0  0  0
 21 23  1  0  0  0  0
 21 37  1  0  0  0  0
 22 24  1  0  0  0  0
 22 38  1  0  0  0  0
M  END
>  <PUBCHEM_COMPOUND_CID>
4764

>  <PUBCHEM_CONFORMER_RMSD>
0.6

>  <PUBCHEM_CONFORMER_DIVERSEORDER>
1
2

>  <PUBCHEM_MMFF94_PARTIAL_CHARGES>
38
1 -0.43
10 0.63
11 -0.15
12 -0.15
13 -0.15
14 -0.15
15 -0.15
16 -0.15
17 -0.15
18 -0.15
19 -0.15
2 -0.57
20 -0.15
21 -0.15
22 -0.15
23 0.08
24 0.08
25 0.15
26 0.15
27 0.15
28 0.15
29 0.15
3 -0.53
30 0.15
31 0.15
32 0.15
33 0.15
34 0.15
35 0.15
36 0.15
37 0.45
38 0.45
4 -0.53
5 0.71
6 -0.14
7 -0.14
8 -0.14
9 0.09

>  <PUBCHEM_EFFECTIVE_ROTOR_COUNT>
2.4

>  <PUBCHEM_PHARMACOPHORE_FEATURES>
7
1 2 acceptor
1 3 donor
1 4 donor
5 1 5 6 9 10 rings
6 6 9 11 16 17 18 rings
6 7 12 14 19 21 23 rings
6 8 13 15 20 22 24 rings

>  <PUBCHEM_HEAVY_ATOM_COUNT>
24

>  <PUBCHEM_ATOM_DEF_STEREO_COUNT>
0

>  <PUBCHEM_ATOM_UDEF_STEREO_COUNT>
0

>  <PUBCHEM_BOND_DEF_STEREO_COUNT>
0

>  <PUBCHEM_BOND_UDEF_STEREO_COUNT>
0

>  <PUBCHEM_ISOTOPIC_ATOM_COUNT>
0

>  <PUBCHEM_COMPONENT_COUNT>
1

>  <PUBCHEM_CACTVS_TAUTO_COUNT>
3

>  <PUBCHEM_CONFORMER_ID>
0000129C00000001

>  <PUBCHEM_MMFF94_ENERGY>
73.5859

>  <PUBCHEM_FEATURE_SELFOVERLAP>
35.612

>  <PUBCHEM_SHAPE_FINGERPRINT>
107951 10 17896624863287892886
11045515 52 17331953336175417086
11488393 25 18128273202711635703
11578080 2 17321590040016393993
12160290 23 18118668053329291953
12707595 3 17470739801835935091
12730499 353 18266752290178564953
12788726 201 18048865587804573066
13004483 165 17623001709369417142
13134695 92 17178525911540464437
133893 2 17832157029932627217
13681431 1 17619063928332389513
13911987 19 17618822091857612558
14817 1 12601773512100054659
14955137 171 18051963728273012354
15906896 17 18189621720607749242
16945 1 18125995203116799243
17980427 23 17833792059947796219
1813 80 16903298849889152566
20101258 96 17689727780098596720
20600515 1 16904694134571746846
21285901 2 17558834141910502559
21304303 282 17836884066659195220
21524375 3 18408318878255438400
22713019 5 17908964836351325575
23419403 2 17329207503443330275
23559900 14 17767114308007163861
238 59 18198352766350337229
298252 57 18343581819887263928
35225 105 18339075024651303449
3729539 64 17979944643381209950
394222 165 18263917744194801281
404807 78 17827046780278463439
484985 159 15122129402031986004
5845 1 10051366938963206913
6442390 28 18411709802596975985
6786 2 18269575908356181783
7364860 26 18049440336107145777
81228 2 17975969087737821057
9841814 1 17541380133828122561

>  <PUBCHEM_SHAPE_MULTIPOLES>
470.43
5.56
5.15
1.91
3.41
4.38
-0.55
-9.41
1.07
-2.59
0.96
-0.36
1.55
0.05

>  <PUBCHEM_SHAPE_SELFOVERLAP>
1062.733

>  <PUBCHEM_SHAPE_VOLUME>
247.8

>  <PUBCHEM_COORDINATE_TYPE>
2
5
10

>  <Energy>
70.8971

$$$$
