66030
 OpenBabel06012612503D

 49 49  0  0  0  0  0  0  0  0999 V2000
    8.2909   -1.3460   -0.4181 O   0  0  0  0  0  0  0  0  0  0  0  0
   -2.9683   -0.0445   -0.3272 C   0  0  0  0  0  0  0  0  0  0  0  0
   -1.7804    0.7914    0.1700 C   0  0  0  0  0  0  0  0  0  0  0  0
   -4.3113    0.5367    0.1369 C   0  0  0  0  0  0  0  0  0  0  0  0
   -0.4336    0.1736   -0.2321 C   0  0  0  0  0  0  0  0  0  0  0  0
   -5.4956   -0.3374   -0.2967 C   0  0  0  0  0  0  0  0  0  0  0  0
    0.7520    0.9792    0.3148 C   0  0  0  0  0  0  0  0  0  0  0  0
   -6.8365    0.2470    0.1668 C   0  0  0  0  0  0  0  0  0  0  0  0
    2.0993    0.3261   -0.0290 C   0  0  0  0  0  0  0  0  0  0  0  0
   -8.0136   -0.6560   -0.2193 C   0  0  0  0  0  0  0  0  0  0  0  0
    3.2774    1.1382    0.5203 C   0  0  0  0  0  0  0  0  0  0  0  0
   -9.3526   -0.0616    0.2245 C   0  0  0  0  0  0  0  0  0  0  0  0
    4.6129    0.4798    0.2557 C   0  0  0  0  0  0  0  0  0  0  0  0
  -10.5220   -0.9580   -0.1579 C   0  0  0  0  0  0  0  0  0  0  0  0
    5.1594   -0.4175    1.1847 C   0  0  0  0  0  0  0  0  0  0  0  0
    5.3221    0.7497   -0.9246 C   0  0  0  0  0  0  0  0  0  0  0  0
    6.3949   -1.0216    0.9444 C   0  0  0  0  0  0  0  0  0  0  0  0
    6.5598    0.1440   -1.1637 C   0  0  0  0  0  0  0  0  0  0  0  0
    7.0847   -0.7365   -0.2262 C   0  0  0  0  0  0  0  0  0  0  0  0
    8.6256   -1.9365    0.2279 H   0  0  0  0  0  0  0  0  0  0  0  0
   -2.8731   -1.0407    0.0517 H   0  0  0  0  0  0  0  0  0  0  0  0
   -2.9553   -0.0359   -1.3971 H   0  0  0  0  0  0  0  0  0  0  0  0
   -1.8260    0.8558    1.2371 H   0  0  0  0  0  0  0  0  0  0  0  0
   -1.8469    1.7601   -0.2796 H   0  0  0  0  0  0  0  0  0  0  0  0
   -4.4297    1.5129   -0.2848 H   0  0  0  0  0  0  0  0  0  0  0  0
   -4.3031    0.5758    1.2062 H   0  0  0  0  0  0  0  0  0  0  0  0
   -0.3704    0.1469   -1.2999 H   0  0  0  0  0  0  0  0  0  0  0  0
   -0.3840   -0.8116    0.1823 H   0  0  0  0  0  0  0  0  0  0  0  0
   -5.3787   -1.3133    0.1263 H   0  0  0  0  0  0  0  0  0  0  0  0
   -5.5034   -0.3794   -1.3658 H   0  0  0  0  0  0  0  0  0  0  0  0
    0.6623    1.0467    1.3789 H   0  0  0  0  0  0  0  0  0  0  0  0
    0.7296    1.9485   -0.1378 H   0  0  0  0  0  0  0  0  0  0  0  0
   -6.9719    1.2062   -0.2875 H   0  0  0  0  0  0  0  0  0  0  0  0
   -6.8140    0.3270    1.2335 H   0  0  0  0  0  0  0  0  0  0  0  0
    2.1906    0.2581   -1.0929 H   0  0  0  0  0  0  0  0  0  0  0  0
    2.1243   -0.6449    0.4199 H   0  0  0  0  0  0  0  0  0  0  0  0
   -7.8862   -1.6104    0.2474 H   0  0  0  0  0  0  0  0  0  0  0  0
   -8.0269   -0.7491   -1.2852 H   0  0  0  0  0  0  0  0  0  0  0  0
    3.1536    1.2491    1.5773 H   0  0  0  0  0  0  0  0  0  0  0  0
    3.2786    2.0846    0.0211 H   0  0  0  0  0  0  0  0  0  0  0  0
   -9.4801    0.8926   -0.2427 H   0  0  0  0  0  0  0  0  0  0  0  0
   -9.3389    0.0317    1.2903 H   0  0  0  0  0  0  0  0  0  0  0  0
  -10.5558   -1.0658   -1.2219 H   0  0  0  0  0  0  0  0  0  0  0  0
  -11.4353   -0.5185    0.1852 H   0  0  0  0  0  0  0  0  0  0  0  0
  -10.3970   -1.9196    0.2943 H   0  0  0  0  0  0  0  0  0  0  0  0
    4.6443   -0.6329    2.0527 H   0  0  0  0  0  0  0  0  0  0  0  0
    4.9273    1.4003   -1.6216 H   0  0  0  0  0  0  0  0  0  0  0  0
    6.7939   -1.6775    1.6341 H   0  0  0  0  0  0  0  0  0  0  0  0
    7.0797    0.3498   -2.0311 H   0  0  0  0  0  0  0  0  0  0  0  0
  1 19  1  0  0  0  0
  1 20  1  0  0  0  0
  2  3  1  0  0  0  0
  2  4  1  0  0  0  0
  2 21  1  0  0  0  0
  2 22  1  0  0  0  0
  3  5  1  0  0  0  0
  3 23  1  0  0  0  0
  3 24  1  0  0  0  0
  4  6  1  0  0  0  0
  4 25  1  0  0  0  0
  4 26  1  0  0  0  0
  5  7  1  0  0  0  0
  5 27  1  0  0  0  0
  5 28  1  0  0  0  0
  6  8  1  0  0  0  0
  6 29  1  0  0  0  0
  6 30  1  0  0  0  0
  7  9  1  0  0  0  0
  7 31  1  0  0  0  0
  7 32  1  0  0  0  0
  8 10  1  0  0  0  0
  8 33  1  0  0  0  0
  8 34  1  0  0  0  0
  9 11  1  0  0  0  0
  9 35  1  0  0  0  0
  9 36  1  0  0  0  0
 10 12  1  0  0  0  0
 10 37  1  0  0  0  0
 10 38  1  0  0  0  0
 11 13  1  0  0  0  0
 11 39  1  0  0  0  0
 11 40  1  0  0  0  0
 12 14  1  0  0  0  0
 12 41  1  0  0  0  0
 12 42  1  0  0  0  0
 13 15  2  0  0  0  0
 13 16  1  0  0  0  0
 14 43  1  0  0  0  0
 14 44  1  0  0  0  0
 14 45  1  0  0  0  0
 15 17  1  0  0  0  0
 15 46  1  0  0  0  0
 16 18  2  0  0  0  0
 16 47  1  0  0  0  0
 17 19  2  0  0  0  0
 17 48  1  0  0  0  0
 18 19  1  0  0  0  0
 18 49  1  0  0  0  0
M  END
>  <PUBCHEM_COMPOUND_CID>
66030

>  <PUBCHEM_CONFORMER_RMSD>
1.2

>  <PUBCHEM_CONFORMER_DIVERSEORDER>
1
27
43
30
42
7
9
47
23
64
77
59
12
26
51
55
21
40
22
3
32
19
20
35
5
4
63
67
37
57
73
49
44
70
72
76
68
34
75
61
2
13
18
41
11
52
6
24
58
14
39
60
66
54
36
71
10
8
48
50
46
74
29
16
31
25
53
62
17
38
65
45
15
33
28
69
56

>  <PUBCHEM_MMFF94_PARTIAL_CHARGES>
13
1 -0.53
11 0.14
13 -0.14
15 -0.15
16 -0.15
17 -0.15
18 -0.15
19 0.08
45 0.15
46 0.15
47 0.15
48 0.15
49 0.45

>  <PUBCHEM_EFFECTIVE_ROTOR_COUNT>
11

>  <PUBCHEM_PHARMACOPHORE_FEATURES>
3
1 1 donor
1 14 hydrophobe
6 13 15 16 17 18 19 rings

>  <PUBCHEM_HEAVY_ATOM_COUNT>
19

>  <PUBCHEM_ATOM_DEF_STEREO_COUNT>
0

>  <PUBCHEM_ATOM_UDEF_STEREO_COUNT>
0

>  <PUBCHEM_BOND_DEF_STEREO_COUNT>
0

>  <PUBCHEM_BOND_UDEF_STEREO_COUNT>
0

>  <PUBCHEM_ISOTOPIC_ATOM_COUNT>
0

>  <PUBCHEM_COMPONENT_COUNT>
1

>  <PUBCHEM_CACTVS_TAUTO_COUNT>
2

>  <PUBCHEM_CONFORMER_ID>
000101EE00000001

>  <PUBCHEM_MMFF94_ENERGY>
17.1314

>  <PUBCHEM_FEATURE_SELFOVERLAP>
15.223

>  <PUBCHEM_SHAPE_FINGERPRINT>
10299344 5 18187364329026076419
11315181 36 12612752407668258021
11638347 137 16056884615222131158
12592606 108 18187646938396418587
14123256 10 12035447237964177775
14202775 3 18342744035811048071
14216079 64 18131354094162944398
14251764 18 18335139783174590257
14251764 46 18410855468718096388
14344974 52 14346088550170402950
14428016 248 12685091463428807807
155225 1 7997962476163039366
15690457 1 18272930526906799111
1754911 235 14923942362938484559
1818759 1 18260269659915412995
21095086 128 18333168367120575115
21150785 3 15140961755271226649
21267235 1 18412825776391500345
21315763 28 18343301483720932705
21360442 33 13624351435972722560
21360442 67 15646772288689321682
21360443 126 14707214326555791792
21362267 313 10879453681237971749
21792934 111 15769773555209174617
221357 26 16732701637096967692
22224240 67 13470688148792058797
22956985 138 17839187308225425230
232437 2 18335421288648809387
23521765 1 18413108373214173933
246663 6 18410576179885014147
249057 3 13984668070778654411
28498 318 18411698777373521389
33532 11 18409164394181344026
33684 2 18410573985156725893
5283156 175 18261112976237404901
5758199 1 10953454120817688117
59521099 67 17748830739798110484
67123 10 8358258142875615737
8209 1 13406792229814648213

>  <PUBCHEM_SHAPE_MULTIPOLES>
385.14
35.51
1.08
0.91
60.57
0.08
0.01
13.49
-2.82
-1.02
0.05
-1.39
0.03
-0.54

>  <PUBCHEM_SHAPE_SELFOVERLAP>
742.068

>  <PUBCHEM_SHAPE_VOLUME>
235.5

>  <PUBCHEM_COORDINATE_TYPE>
2
5
10

>  <Energy>
5.58437

$$$$
