


 29 32  0  0  0  0  0  0  0  0999 V2000
   89.3305   94.1530   13.8835 C   0  0  0  0  0  0  0  0  0  0  0  0
   90.1849   93.0962   13.5731 C   0  0  0  0  0  0  0  0  0  0  0  0
   91.4420   93.0337   14.1693 C   0  0  0  0  0  0  0  0  0  0  0  0
   91.8461   94.0440   15.0851 C   0  0  0  0  0  0  0  0  0  0  0  0
   91.0030   95.0775   15.3818 C   0  0  0  0  0  0  0  0  0  0  0  0
   89.7232   95.1426   14.7820 C   0  0  0  0  0  0  0  0  0  0  0  0
   91.6577   95.9210   16.3215 C   0  0  0  0  0  0  0  0  0  0  0  0
   92.9336   95.4190   16.5862 C   0  0  0  0  0  0  0  0  0  0  0  0
   93.0377   94.2424   15.8337 C   0  0  0  0  0  0  0  0  0  0  0  0
   91.1125   97.0930   16.8585 O   0  0  0  0  0  0  0  0  0  0  0  0
   91.0901   97.7816   16.1756 H   0  0  0  0  0  0  0  0  0  0  0  0
   88.0712   94.1914   13.2770 O   0  0  0  0  0  0  0  0  0  0  0  0
   87.0272   93.7698   14.1006 C   0  0  0  0  0  0  0  0  0  0  0  0
   89.7408   92.1196   12.6671 O   0  0  0  0  0  0  0  0  0  0  0  0
   90.7226   91.2507   12.1817 C   0  0  0  0  0  0  0  0  0  0  0  0
   94.1078   96.4008   16.7019 C   0  0  0  0  0  0  0  0  0  0  0  0
   95.4076   95.8198   17.4943 C   0  0  0  0  0  0  0  0  0  0  0  0
   96.1208   94.8701   16.6708 C   0  0  0  0  0  0  0  0  0  0  0  0
   97.4738   94.4563   17.2650 C   0  0  0  0  0  0  0  0  0  0  0  0
   98.2989   95.5982   17.6479 N   0  0  0  0  0  0  0  0  0  0  0  0
   97.5995   96.6082   18.4124 C   0  0  0  0  0  0  0  0  0  0  0  0
   96.2456   96.9849   17.8160 C   0  0  0  0  0  0  0  0  0  0  0  0
   99.4247   95.3187   18.0158 C   0  0  0  0  0  0  0  0  0  0  0  0
   99.7340   95.3430   19.5322 C   0  0  0  0  0  0  0  0  0  0  0  0
   99.6692   94.1694   20.2773 C   0  0  0  0  0  0  0  0  0  0  0  0
   99.9523   94.1754   21.6379 C   0  0  0  0  0  0  0  0  0  0  0  0
  100.3278   95.3539   22.2701 C   0  0  0  0  0  0  0  0  0  0  0  0
  100.4124   96.5260   21.5334 C   0  0  0  0  0  0  0  0  0  0  0  0
  100.1329   96.5156   20.1725 C   0  0  0  0  0  0  0  0  0  0  0  0
  2  1  1  0
  3  2  1  0
  4  3  1  0
  5  4  1  0
  6  5  1  0
  6  1  1  0
  7  5  1  0
  8  7  1  0
  9  4  1  0
  9  8  1  0
  8 16  1  0
 17 16  1  0
 18 17  1  0
 19 18  1  0
 20 19  1  0
 21 20  1  0
 22 21  1  0
 22 17  1  0
 23 20  1  0
 24 23  1  0
 25 24  1  0
 26 25  1  0
 27 26  1  0
 28 27  1  0
 29 24  1  0
 29 28  1  0
 10  7  1  0
 12  1  1  0
 13 12  1  0
 14  2  1  0
 15 14  1  0
 10 11  1  0
M  END
> <minimizedAffinity>
-12.46192

> <CNNscore>
0.9593937993

> <CNNaffinity>
7.9088129997

> <CNN_VS>
7.5876660347

> <CNNaffinity_variance>
0.1852334738

$$$$



 29 32  0  0  0  0  0  0  0  0999 V2000
   88.2434   94.4088   13.4077 C   0  0  0  0  0  0  0  0  0  0  0  0
   89.3063   93.9967   12.6054 C   0  0  0  0  0  0  0  0  0  0  0  0
   90.5718   93.8481   13.1677 C   0  0  0  0  0  0  0  0  0  0  0  0
   90.7723   94.1182   14.5496 C   0  0  0  0  0  0  0  0  0  0  0  0
   89.7252   94.5239   15.3280 C   0  0  0  0  0  0  0  0  0  0  0  0
   88.4369   94.6718   14.7619 C   0  0  0  0  0  0  0  0  0  0  0  0
   90.2097   94.7083   16.6526 C   0  0  0  0  0  0  0  0  0  0  0  0
   91.5801   94.4425   16.6871 C   0  0  0  0  0  0  0  0  0  0  0  0
   91.9204   94.0554   15.3849 C   0  0  0  0  0  0  0  0  0  0  0  0
   89.4313   95.1316   17.7362 O   0  0  0  0  0  0  0  0  0  0  0  0
   89.2111   96.0702   17.6290 H   0  0  0  0  0  0  0  0  0  0  0  0
   86.9810   94.5453   12.8221 O   0  0  0  0  0  0  0  0  0  0  0  0
   86.8929   95.5776   11.8879 C   0  0  0  0  0  0  0  0  0  0  0  0
   89.0594   93.7371   11.2476 O   0  0  0  0  0  0  0  0  0  0  0  0
   89.9652   92.8770   10.6197 C   0  0  0  0  0  0  0  0  0  0  0  0
   92.4930   95.3591   17.5133 C   0  0  0  0  0  0  0  0  0  0  0  0
   94.0861   95.1761   17.2239 C   0  0  0  0  0  0  0  0  0  0  0  0
   94.6551   96.4068   16.7233 C   0  0  0  0  0  0  0  0  0  0  0  0
   96.1872   96.3721   16.6446 C   0  0  0  0  0  0  0  0  0  0  0  0
   96.8099   95.9311   17.8892 N   0  0  0  0  0  0  0  0  0  0  0  0
   96.2186   94.7411   18.4616 C   0  0  0  0  0  0  0  0  0  0  0  0
   94.6933   94.7881   18.5060 C   0  0  0  0  0  0  0  0  0  0  0  0
   98.0248   95.9992   17.9086 C   0  0  0  0  0  0  0  0  0  0  0  0
   98.7511   95.8596   19.2683 C   0  0  0  0  0  0  0  0  0  0  0  0
   99.1720   94.6090   19.7104 C   0  0  0  0  0  0  0  0  0  0  0  0
   99.8324   94.4703   20.9252 C   0  0  0  0  0  0  0  0  0  0  0  0
  100.1027   95.5863   21.7070 C   0  0  0  0  0  0  0  0  0  0  0  0
   99.7029   96.8397   21.2679 C   0  0  0  0  0  0  0  0  0  0  0  0
   99.0467   96.9752   20.0507 C   0  0  0  0  0  0  0  0  0  0  0  0
  2  1  1  0
  3  2  1  0
  4  3  1  0
  5  4  1  0
  6  5  1  0
  6  1  1  0
  7  5  1  0
  8  7  1  0
  9  4  1  0
  9  8  1  0
  8 16  1  0
 17 16  1  0
 18 17  1  0
 19 18  1  0
 20 19  1  0
 21 20  1  0
 22 21  1  0
 22 17  1  0
 23 20  1  0
 24 23  1  0
 25 24  1  0
 26 25  1  0
 27 26  1  0
 28 27  1  0
 29 24  1  0
 29 28  1  0
 10  7  1  0
 12  1  1  0
 13 12  1  0
 14  2  1  0
 15 14  1  0
 10 11  1  0
M  END
> <minimizedAffinity>
-10.49146

> <CNNscore>
0.8853428960

> <CNNaffinity>
7.6840710640

> <CNN_VS>
6.8030376434

> <CNNaffinity_variance>
0.2369493842

$$$$



 29 32  0  0  0  0  0  0  0  0999 V2000
   89.3586   93.7763   13.7491 C   0  0  0  0  0  0  0  0  0  0  0  0
   90.2467   92.8296   13.2410 C   0  0  0  0  0  0  0  0  0  0  0  0
   91.5325   92.7433   13.7692 C   0  0  0  0  0  0  0  0  0  0  0  0
   91.9313   93.6183   14.8170 C   0  0  0  0  0  0  0  0  0  0  0  0
   91.0550   94.5448   15.3075 C   0  0  0  0  0  0  0  0  0  0  0  0
   89.7462   94.6329   14.7771 C   0  0  0  0  0  0  0  0  0  0  0  0
   91.7130   95.2653   16.3425 C   0  0  0  0  0  0  0  0  0  0  0  0
   93.0227   94.7986   16.4730 C   0  0  0  0  0  0  0  0  0  0  0  0
   93.1466   93.7619   15.5396 C   0  0  0  0  0  0  0  0  0  0  0  0
   91.1389   96.3071   17.0802 O   0  0  0  0  0  0  0  0  0  0  0  0
   91.0508   97.0919   16.5168 H   0  0  0  0  0  0  0  0  0  0  0  0
   88.0713   93.8402   13.2070 O   0  0  0  0  0  0  0  0  0  0  0  0
   87.0516   93.8727   14.1584 C   0  0  0  0  0  0  0  0  0  0  0  0
   89.8068   91.9841   12.2097 O   0  0  0  0  0  0  0  0  0  0  0  0
   90.6039   90.8624   11.9628 C   0  0  0  0  0  0  0  0  0  0  0  0
   94.1528   95.8130   16.6964 C   0  0  0  0  0  0  0  0  0  0  0  0
   95.2696   95.3599   17.7931 C   0  0  0  0  0  0  0  0  0  0  0  0
   96.1264   96.4728   18.1338 C   0  0  0  0  0  0  0  0  0  0  0  0
   97.0513   96.1773   19.3221 C   0  0  0  0  0  0  0  0  0  0  0  0
   96.3374   95.6439   20.4784 N   0  0  0  0  0  0  0  0  0  0  0  0
   95.4132   94.5752   20.1663 C   0  0  0  0  0  0  0  0  0  0  0  0
   94.5215   94.8815   18.9656 C   0  0  0  0  0  0  0  0  0  0  0  0
   97.0134   95.5043   21.4806 C   0  0  0  0  0  0  0  0  0  0  0  0
   98.2120   94.5262   21.4332 C   0  0  0  0  0  0  0  0  0  0  0  0
   99.1448   94.5136   22.4658 C   0  0  0  0  0  0  0  0  0  0  0  0
  100.2212   93.6349   22.4399 C   0  0  0  0  0  0  0  0  0  0  0  0
  100.3681   92.7378   21.3897 C   0  0  0  0  0  0  0  0  0  0  0  0
   99.4346   92.7299   20.3638 C   0  0  0  0  0  0  0  0  0  0  0  0
   98.3573   93.6068   20.3951 C   0  0  0  0  0  0  0  0  0  0  0  0
  2  1  1  0
  3  2  1  0
  4  3  1  0
  5  4  1  0
  6  5  1  0
  6  1  1  0
  7  5  1  0
  8  7  1  0
  9  4  1  0
  9  8  1  0
  8 16  1  0
 17 16  1  0
 18 17  1  0
 19 18  1  0
 20 19  1  0
 21 20  1  0
 22 21  1  0
 22 17  1  0
 23 20  1  0
 24 23  1  0
 25 24  1  0
 26 25  1  0
 27 26  1  0
 28 27  1  0
 29 24  1  0
 29 28  1  0
 10  7  1  0
 12  1  1  0
 13 12  1  0
 14  2  1  0
 15 14  1  0
 10 11  1  0
M  END
> <minimizedAffinity>
-11.38391

> <CNNscore>
0.8993604779

> <CNNaffinity>
7.5299372673

> <CNN_VS>
6.7721281052

> <CNNaffinity_variance>
0.1512116194

$$$$



 29 32  0  0  0  0  0  0  0  0999 V2000
   90.5102   93.4800   12.0823 C   0  0  0  0  0  0  0  0  0  0  0  0
   91.4456   92.4466   12.0989 C   0  0  0  0  0  0  0  0  0  0  0  0
   92.2357   92.2556   13.2298 C   0  0  0  0  0  0  0  0  0  0  0  0
   92.0862   93.1125   14.3550 C   0  0  0  0  0  0  0  0  0  0  0  0
   91.1684   94.1244   14.3291 C   0  0  0  0  0  0  0  0  0  0  0  0
   90.3605   94.3193   13.1840 C   0  0  0  0  0  0  0  0  0  0  0  0
   91.2301   94.8038   15.5773 C   0  0  0  0  0  0  0  0  0  0  0  0
   92.2198   94.2236   16.3734 C   0  0  0  0  0  0  0  0  0  0  0  0
   92.7331   93.1608   15.6195 C   0  0  0  0  0  0  0  0  0  0  0  0
   90.4439   95.9083   15.9253 O   0  0  0  0  0  0  0  0  0  0  0  0
   90.7400   96.6859   15.4268 H   0  0  0  0  0  0  0  0  0  0  0  0
   89.7244   93.6486   10.9381 O   0  0  0  0  0  0  0  0  0  0  0  0
   90.1530   94.6754   10.0966 C   0  0  0  0  0  0  0  0  0  0  0  0
   91.5542   91.6231   10.9666 O   0  0  0  0  0  0  0  0  0  0  0  0
   92.5213   92.0022   10.0309 C   0  0  0  0  0  0  0  0  0  0  0  0
   93.1383   95.1363   17.1978 C   0  0  0  0  0  0  0  0  0  0  0  0
   94.6549   94.5755   17.3995 C   0  0  0  0  0  0  0  0  0  0  0  0
   95.5169   95.0529   16.3421 C   0  0  0  0  0  0  0  0  0  0  0  0
   97.0002   94.7501   16.5932 C   0  0  0  0  0  0  0  0  0  0  0  0
   97.4495   95.1710   17.9169 N   0  0  0  0  0  0  0  0  0  0  0  0
   96.5724   94.7745   18.9971 C   0  0  0  0  0  0  0  0  0  0  0  0
   95.1001   95.0623   18.7140 C   0  0  0  0  0  0  0  0  0  0  0  0
   98.6446   95.0553   18.1150 C   0  0  0  0  0  0  0  0  0  0  0  0
   99.2033   95.4377   19.5069 C   0  0  0  0  0  0  0  0  0  0  0  0
   99.7794   94.4659   20.3196 C   0  0  0  0  0  0  0  0  0  0  0  0
  100.2922   94.7969   21.5681 C   0  0  0  0  0  0  0  0  0  0  0  0
  100.2572   96.1121   22.0136 C   0  0  0  0  0  0  0  0  0  0  0  0
   99.7009   97.0917   21.2044 C   0  0  0  0  0  0  0  0  0  0  0  0
   99.1931   96.7580   19.9549 C   0  0  0  0  0  0  0  0  0  0  0  0
  2  1  1  0
  3  2  1  0
  4  3  1  0
  5  4  1  0
  6  5  1  0
  6  1  1  0
  7  5  1  0
  8  7  1  0
  9  4  1  0
  9  8  1  0
  8 16  1  0
 17 16  1  0
 18 17  1  0
 19 18  1  0
 20 19  1  0
 21 20  1  0
 22 21  1  0
 22 17  1  0
 23 20  1  0
 24 23  1  0
 25 24  1  0
 26 25  1  0
 27 26  1  0
 28 27  1  0
 29 24  1  0
 29 28  1  0
 10  7  1  0
 12  1  1  0
 13 12  1  0
 14  2  1  0
 15 14  1  0
 10 11  1  0
M  END
> <minimizedAffinity>
-9.81718

> <CNNscore>
0.8520225883

> <CNNaffinity>
7.5295701027

> <CNN_VS>
6.4153637886

> <CNNaffinity_variance>
0.3559975922

$$$$



 29 32  0  0  0  0  0  0  0  0999 V2000
  100.5079   93.1510   21.7472 C   0  0  0  0  0  0  0  0  0  0  0  0
  100.1638   92.5340   20.5455 C   0  0  0  0  0  0  0  0  0  0  0  0
   99.5883   93.2902   19.5272 C   0  0  0  0  0  0  0  0  0  0  0  0
   99.3541   94.6798   19.7186 C   0  0  0  0  0  0  0  0  0  0  0  0
   99.6925   95.2759   20.9006 C   0  0  0  0  0  0  0  0  0  0  0  0
  100.2816   94.5125   21.9361 C   0  0  0  0  0  0  0  0  0  0  0  0
   99.3581   96.6552   20.8072 C   0  0  0  0  0  0  0  0  0  0  0  0
   98.7777   96.9092   19.5627 C   0  0  0  0  0  0  0  0  0  0  0  0
   98.7975   95.6852   18.8824 C   0  0  0  0  0  0  0  0  0  0  0  0
   99.5481   97.5942   21.8277 O   0  0  0  0  0  0  0  0  0  0  0  0
   98.9086   97.4325   22.5390 H   0  0  0  0  0  0  0  0  0  0  0  0
  101.0898   92.3726   22.7526 O   0  0  0  0  0  0  0  0  0  0  0  0
  101.4293   93.0854   23.9026 C   0  0  0  0  0  0  0  0  0  0  0  0
  100.4183   91.1606   20.4005 O   0  0  0  0  0  0  0  0  0  0  0  0
   99.4773   90.3045   20.9803 C   0  0  0  0  0  0  0  0  0  0  0  0
   97.5646   97.8466   19.4874 C   0  0  0  0  0  0  0  0  0  0  0  0
   96.2797   97.2372   18.6918 C   0  0  0  0  0  0  0  0  0  0  0  0
   96.5742   97.0991   17.2836 C   0  0  0  0  0  0  0  0  0  0  0  0
   95.4941   96.3242   16.5169 C   0  0  0  0  0  0  0  0  0  0  0  0
   95.1530   95.0521   17.1465 N   0  0  0  0  0  0  0  0  0  0  0  0
   94.9227   95.1365   18.5725 C   0  0  0  0  0  0  0  0  0  0  0  0
   95.9962   95.9331   19.3099 C   0  0  0  0  0  0  0  0  0  0  0  0
   94.3857   94.3532   16.5111 C   0  0  0  0  0  0  0  0  0  0  0  0
   92.9538   94.8783   16.2474 C   0  0  0  0  0  0  0  0  0  0  0  0
   92.0283   94.0799   15.5820 C   0  0  0  0  0  0  0  0  0  0  0  0
   90.7369   94.5357   15.3459 C   0  0  0  0  0  0  0  0  0  0  0  0
   90.3442   95.7907   15.7933 C   0  0  0  0  0  0  0  0  0  0  0  0
   91.2534   96.5879   16.4728 C   0  0  0  0  0  0  0  0  0  0  0  0
   92.5424   96.1273   16.7110 C   0  0  0  0  0  0  0  0  0  0  0  0
  2  1  1  0
  3  2  1  0
  4  3  1  0
  5  4  1  0
  6  5  1  0
  6  1  1  0
  7  5  1  0
  8  7  1  0
  9  4  1  0
  9  8  1  0
  8 16  1  0
 17 16  1  0
 18 17  1  0
 19 18  1  0
 20 19  1  0
 21 20  1  0
 22 21  1  0
 22 17  1  0
 23 20  1  0
 24 23  1  0
 25 24  1  0
 26 25  1  0
 27 26  1  0
 28 27  1  0
 29 24  1  0
 29 28  1  0
 10  7  1  0
 12  1  1  0
 13 12  1  0
 14  2  1  0
 15 14  1  0
 10 11  1  0
M  END
> <minimizedAffinity>
-8.49026

> <CNNscore>
0.7550866604

> <CNNaffinity>
7.4814295769

> <CNN_VS>
5.6491274834

> <CNNaffinity_variance>
0.1866540760

$$$$



 29 32  0  0  0  0  0  0  0  0999 V2000
   93.2553   93.8205   15.6401 C   0  0  0  0  0  0  0  0  0  0  0  0
   92.2994   94.7531   16.0396 C   0  0  0  0  0  0  0  0  0  0  0  0
   92.7107   95.9505   16.6199 C   0  0  0  0  0  0  0  0  0  0  0  0
   94.0965   96.2131   16.8028 C   0  0  0  0  0  0  0  0  0  0  0  0
   95.0266   95.2923   16.4104 C   0  0  0  0  0  0  0  0  0  0  0  0
   94.6133   94.0765   15.8163 C   0  0  0  0  0  0  0  0  0  0  0  0
   96.3151   95.8194   16.7022 C   0  0  0  0  0  0  0  0  0  0  0  0
   96.1789   97.0690   17.3104 C   0  0  0  0  0  0  0  0  0  0  0  0
   94.8014   97.3188   17.3507 C   0  0  0  0  0  0  0  0  0  0  0  0
   97.5237   95.1593   16.4516 O   0  0  0  0  0  0  0  0  0  0  0  0
   97.6252   94.4229   17.0747 H   0  0  0  0  0  0  0  0  0  0  0  0
   92.8185   92.6282   15.0546 O   0  0  0  0  0  0  0  0  0  0  0  0
   93.7238   92.0696   14.1522 C   0  0  0  0  0  0  0  0  0  0  0  0
   90.9431   94.4521   15.8345 O   0  0  0  0  0  0  0  0  0  0  0  0
   90.0616   94.9282   16.8095 C   0  0  0  0  0  0  0  0  0  0  0  0
   97.0905   97.4212   18.4940 C   0  0  0  0  0  0  0  0  0  0  0  0
   97.9104   96.1609   19.1225 C   0  0  0  0  0  0  0  0  0  0  0  0
   99.2114   96.5840   19.5885 C   0  0  0  0  0  0  0  0  0  0  0  0
   99.9430   95.5011   20.3927 C   0  0  0  0  0  0  0  0  0  0  0  0
   99.1224   94.9333   21.4582 N   0  0  0  0  0  0  0  0  0  0  0  0
   97.7850   94.5646   21.0472 C   0  0  0  0  0  0  0  0  0  0  0  0
   97.0870   95.6469   20.2274 C   0  0  0  0  0  0  0  0  0  0  0  0
   99.7007   94.1546   22.1932 C   0  0  0  0  0  0  0  0  0  0  0  0
  100.1331   92.7823   21.6225 C   0  0  0  0  0  0  0  0  0  0  0  0
   99.6114   92.3328   20.4132 C   0  0  0  0  0  0  0  0  0  0  0  0
   99.9970   91.1065   19.8853 C   0  0  0  0  0  0  0  0  0  0  0  0
  100.9299   90.3201   20.5494 C   0  0  0  0  0  0  0  0  0  0  0  0
  101.4692   90.7663   21.7468 C   0  0  0  0  0  0  0  0  0  0  0  0
  101.0847   91.9949   22.2695 C   0  0  0  0  0  0  0  0  0  0  0  0
  2  1  1  0
  3  2  1  0
  4  3  1  0
  5  4  1  0
  6  5  1  0
  6  1  1  0
  7  5  1  0
  8  7  1  0
  9  4  1  0
  9  8  1  0
  8 16  1  0
 17 16  1  0
 18 17  1  0
 19 18  1  0
 20 19  1  0
 21 20  1  0
 22 21  1  0
 22 17  1  0
 23 20  1  0
 24 23  1  0
 25 24  1  0
 26 25  1  0
 27 26  1  0
 28 27  1  0
 29 24  1  0
 29 28  1  0
 10  7  1  0
 12  1  1  0
 13 12  1  0
 14  2  1  0
 15 14  1  0
 10 11  1  0
M  END
> <minimizedAffinity>
-10.47850

> <CNNscore>
0.8239707947

> <CNNaffinity>
7.3348693848

> <CNN_VS>
6.0437183380

> <CNNaffinity_variance>
0.1782914400

$$$$



 29 32  0  0  0  0  0  0  0  0999 V2000
   89.4259   93.5031   13.7511 C   0  0  0  0  0  0  0  0  0  0  0  0
   90.4954   92.6874   13.3853 C   0  0  0  0  0  0  0  0  0  0  0  0
   91.7377   92.8757   13.9862 C   0  0  0  0  0  0  0  0  0  0  0  0
   91.9080   93.8952   14.9631 C   0  0  0  0  0  0  0  0  0  0  0  0
   90.8547   94.6916   15.3139 C   0  0  0  0  0  0  0  0  0  0  0  0
   89.5898   94.5008   14.7093 C   0  0  0  0  0  0  0  0  0  0  0  0
   91.3072   95.6043   16.3067 C   0  0  0  0  0  0  0  0  0  0  0  0
   92.6652   95.3892   16.5509 C   0  0  0  0  0  0  0  0  0  0  0  0
   93.0283   94.3134   15.7311 C   0  0  0  0  0  0  0  0  0  0  0  0
   90.5141   96.5886   16.9078 O   0  0  0  0  0  0  0  0  0  0  0  0
   90.3323   97.2934   16.2667 H   0  0  0  0  0  0  0  0  0  0  0  0
   88.1869   93.2913   13.1384 O   0  0  0  0  0  0  0  0  0  0  0  0
   87.8091   94.2984   12.2501 C   0  0  0  0  0  0  0  0  0  0  0  0
   90.2785   91.6910   12.4198 O   0  0  0  0  0  0  0  0  0  0  0  0
   90.8869   91.9050   11.1794 C   0  0  0  0  0  0  0  0  0  0  0  0
   93.5873   96.6027   16.7332 C   0  0  0  0  0  0  0  0  0  0  0  0
   95.1793   96.2721   16.6269 C   0  0  0  0  0  0  0  0  0  0  0  0
   95.8821   96.7862   17.7805 C   0  0  0  0  0  0  0  0  0  0  0  0
   97.3407   96.3152   17.8547 C   0  0  0  0  0  0  0  0  0  0  0  0
   97.4783   94.8688   17.7121 N   0  0  0  0  0  0  0  0  0  0  0  0
   96.7286   94.3054   16.6103 C   0  0  0  0  0  0  0  0  0  0  0  0
   95.2886   94.8079   16.5421 C   0  0  0  0  0  0  0  0  0  0  0  0
   98.6049   94.4404   17.8802 C   0  0  0  0  0  0  0  0  0  0  0  0
   98.8453   92.9180   17.7386 C   0  0  0  0  0  0  0  0  0  0  0  0
   98.9049   92.3344   16.4766 C   0  0  0  0  0  0  0  0  0  0  0  0
   99.1283   90.9702   16.3348 C   0  0  0  0  0  0  0  0  0  0  0  0
   99.3188   90.1713   17.4551 C   0  0  0  0  0  0  0  0  0  0  0  0
   99.2785   90.7455   18.7170 C   0  0  0  0  0  0  0  0  0  0  0  0
   99.0594   92.1105   18.8550 C   0  0  0  0  0  0  0  0  0  0  0  0
  2  1  1  0
  3  2  1  0
  4  3  1  0
  5  4  1  0
  6  5  1  0
  6  1  1  0
  7  5  1  0
  8  7  1  0
  9  4  1  0
  9  8  1  0
  8 16  1  0
 17 16  1  0
 18 17  1  0
 19 18  1  0
 20 19  1  0
 21 20  1  0
 22 21  1  0
 22 17  1  0
 23 20  1  0
 24 23  1  0
 25 24  1  0
 26 25  1  0
 27 26  1  0
 28 27  1  0
 29 24  1  0
 29 28  1  0
 10  7  1  0
 12  1  1  0
 13 12  1  0
 14  2  1  0
 15 14  1  0
 10 11  1  0
M  END
> <minimizedAffinity>
-10.03622

> <CNNscore>
0.6127371788

> <CNNaffinity>
7.1967773438

> <CNN_VS>
4.4097328186

> <CNNaffinity_variance>
0.0916007534

$$$$



 29 32  0  0  0  0  0  0  0  0999 V2000
   87.3954   92.0009   12.2125 C   0  0  0  0  0  0  0  0  0  0  0  0
   86.9465   93.0147   13.0574 C   0  0  0  0  0  0  0  0  0  0  0  0
   87.8681   93.7341   13.8143 C   0  0  0  0  0  0  0  0  0  0  0  0
   89.2546   93.4308   13.7234 C   0  0  0  0  0  0  0  0  0  0  0  0
   89.6855   92.4338   12.8943 C   0  0  0  0  0  0  0  0  0  0  0  0
   88.7532   91.7035   12.1201 C   0  0  0  0  0  0  0  0  0  0  0  0
   91.1022   92.3601   12.9973 C   0  0  0  0  0  0  0  0  0  0  0  0
   91.5502   93.3032   13.9246 C   0  0  0  0  0  0  0  0  0  0  0  0
   90.4026   93.9800   14.3561 C   0  0  0  0  0  0  0  0  0  0  0  0
   91.9074   91.4501   12.3025 O   0  0  0  0  0  0  0  0  0  0  0  0
   91.7811   90.5610   12.6692 H   0  0  0  0  0  0  0  0  0  0  0  0
   86.4522   91.2964   11.4581 O   0  0  0  0  0  0  0  0  0  0  0  0
   85.3100   90.9292   12.1699 C   0  0  0  0  0  0  0  0  0  0  0  0
   85.5689   93.2816   13.1106 O   0  0  0  0  0  0  0  0  0  0  0  0
   85.2044   94.6231   12.9624 C   0  0  0  0  0  0  0  0  0  0  0  0
   92.6622   92.9082   14.9062 C   0  0  0  0  0  0  0  0  0  0  0  0
   93.2921   94.1463   15.7580 C   0  0  0  0  0  0  0  0  0  0  0  0
   92.8298   94.1071   17.1268 C   0  0  0  0  0  0  0  0  0  0  0  0
   93.5580   95.1062   18.0359 C   0  0  0  0  0  0  0  0  0  0  0  0
   95.0112   95.0143   17.9313 N   0  0  0  0  0  0  0  0  0  0  0  0
   95.5090   94.9764   16.5732 C   0  0  0  0  0  0  0  0  0  0  0  0
   94.7530   93.9944   15.6818 C   0  0  0  0  0  0  0  0  0  0  0  0
   95.6282   95.7072   18.7187 C   0  0  0  0  0  0  0  0  0  0  0  0
   97.0980   95.3382   19.0338 C   0  0  0  0  0  0  0  0  0  0  0  0
   98.1191   96.2446   18.7643 C   0  0  0  0  0  0  0  0  0  0  0  0
   99.4422   95.9295   19.0497 C   0  0  0  0  0  0  0  0  0  0  0  0
   99.7618   94.7093   19.6316 C   0  0  0  0  0  0  0  0  0  0  0  0
   98.7502   93.8055   19.9202 C   0  0  0  0  0  0  0  0  0  0  0  0
   97.4280   94.1256   19.6376 C   0  0  0  0  0  0  0  0  0  0  0  0
  2  1  1  0
  3  2  1  0
  4  3  1  0
  5  4  1  0
  6  5  1  0
  6  1  1  0
  7  5  1  0
  8  7  1  0
  9  4  1  0
  9  8  1  0
  8 16  1  0
 17 16  1  0
 18 17  1  0
 19 18  1  0
 20 19  1  0
 21 20  1  0
 22 21  1  0
 22 17  1  0
 23 20  1  0
 24 23  1  0
 25 24  1  0
 26 25  1  0
 27 26  1  0
 28 27  1  0
 29 24  1  0
 29 28  1  0
 10  7  1  0
 12  1  1  0
 13 12  1  0
 14  2  1  0
 15 14  1  0
 10 11  1  0
M  END
> <minimizedAffinity>
-9.59909

> <CNNscore>
0.6381987333

> <CNNaffinity>
7.0738816261

> <CNN_VS>
4.5145421028

> <CNNaffinity_variance>
0.2777698636

$$$$
