4115
 OpenBabel06182610193D

 36 37  0  0  0  0  0  0  0  0999 V2000
   -0.2888   -2.6439   -1.9487 Cl  0  0  0  0  0  0  0  0  0  0  0  0
   -1.4053   -3.6677    0.5159 Cl  0  0  0  0  0  0  0  0  0  0  0  0
    1.4652   -3.6133    0.1583 Cl  0  0  0  0  0  0  0  0  0  0  0  0
   -4.7512    1.8884    0.0736 O   0  0  0  0  0  0  0  0  0  0  0  0
    4.6812    2.0226    0.1684 O   0  0  0  0  0  0  0  0  0  0  0  0
    0.0032   -1.2653    0.5420 C   0  0  0  0  0  0  0  0  0  0  0  0
   -1.2573   -0.4079    0.3682 C   0  0  0  0  0  0  0  0  0  0  0  0
    1.2696   -0.4112    0.3678 C   0  0  0  0  0  0  0  0  0  0  0  0
   -0.0472   -2.6718   -0.1646 C   0  0  0  0  0  0  0  0  0  0  0  0
   -2.1337   -0.2204    1.4489 C   0  0  0  0  0  0  0  0  0  0  0  0
    1.7843    0.2753    1.4840 C   0  0  0  0  0  0  0  0  0  0  0  0
   -1.5618    0.2281   -0.8443 C   0  0  0  0  0  0  0  0  0  0  0  0
    1.9199   -0.2395   -0.8600 C   0  0  0  0  0  0  0  0  0  0  0  0
   -3.2863    0.5585    1.3063 C   0  0  0  0  0  0  0  0  0  0  0  0
    2.9250    1.0754    1.3738 C   0  0  0  0  0  0  0  0  0  0  0  0
   -2.7215    0.9970   -0.9866 C   0  0  0  0  0  0  0  0  0  0  0  0
    3.0639    0.5632   -0.9662 C   0  0  0  0  0  0  0  0  0  0  0  0
   -3.5918    1.1631    0.0871 C   0  0  0  0  0  0  0  0  0  0  0  0
    3.5747    1.2189    0.1490 C   0  0  0  0  0  0  0  0  0  0  0  0
   -5.1239    2.4690   -1.1706 C   0  0  0  0  0  0  0  0  0  0  0  0
    5.3906    2.1570   -1.0576 C   0  0  0  0  0  0  0  0  0  0  0  0
    0.0481   -1.5982    1.5579 H   0  0  0  0  0  0  0  0  0  0  0  0
   -1.9251   -0.6620    2.3580 H   0  0  0  0  0  0  0  0  0  0  0  0
    1.3123    0.1864    2.3974 H   0  0  0  0  0  0  0  0  0  0  0  0
   -0.9190    0.1269   -1.6454 H   0  0  0  0  0  0  0  0  0  0  0  0
    1.5511   -0.7115   -1.7004 H   0  0  0  0  0  0  0  0  0  0  0  0
   -3.9180    0.6873    2.1122 H   0  0  0  0  0  0  0  0  0  0  0  0
    3.2894    1.5641    2.2065 H   0  0  0  0  0  0  0  0  0  0  0  0
   -2.9331    1.4436   -1.8926 H   0  0  0  0  0  0  0  0  0  0  0  0
    3.5315    0.6686   -1.8801 H   0  0  0  0  0  0  0  0  0  0  0  0
   -6.0413    3.0068   -1.0526 H   0  0  0  0  0  0  0  0  0  0  0  0
   -5.2544    1.6968   -1.8997 H   0  0  0  0  0  0  0  0  0  0  0  0
   -4.3563    3.1400   -1.4952 H   0  0  0  0  0  0  0  0  0  0  0  0
    6.2295    2.8057   -0.9150 H   0  0  0  0  0  0  0  0  0  0  0  0
    4.7421    2.5708   -1.8014 H   0  0  0  0  0  0  0  0  0  0  0  0
    5.7336    1.1956   -1.3785 H   0  0  0  0  0  0  0  0  0  0  0  0
  1  9  1  0  0  0  0
  2  9  1  0  0  0  0
  3  9  1  0  0  0  0
  4 18  1  0  0  0  0
  4 20  1  0  0  0  0
  5 19  1  0  0  0  0
  5 21  1  0  0  0  0
  6  7  1  0  0  0  0
  6  8  1  0  0  0  0
  6  9  1  0  0  0  0
  6 22  1  0  0  0  0
  7 10  2  0  0  0  0
  7 12  1  0  0  0  0
  8 11  2  0  0  0  0
  8 13  1  0  0  0  0
 10 14  1  0  0  0  0
 10 23  1  0  0  0  0
 11 15  1  0  0  0  0
 11 24  1  0  0  0  0
 12 16  2  0  0  0  0
 12 25  1  0  0  0  0
 13 17  2  0  0  0  0
 13 26  1  0  0  0  0
 14 18  2  0  0  0  0
 14 27  1  0  0  0  0
 15 19  2  0  0  0  0
 15 28  1  0  0  0  0
 16 18  1  0  0  0  0
 16 29  1  0  0  0  0
 17 19  1  0  0  0  0
 17 30  1  0  0  0  0
 20 31  1  0  0  0  0
 20 32  1  0  0  0  0
 20 33  1  0  0  0  0
 21 34  1  0  0  0  0
 21 35  1  0  0  0  0
 21 36  1  0  0  0  0
M  END
>  <PUBCHEM_COMPOUND_CID>
4115

>  <PUBCHEM_CONFORMER_RMSD>
0.8

>  <PUBCHEM_CONFORMER_DIVERSEORDER>
1
2

>  <PUBCHEM_MMFF94_PARTIAL_CHARGES>
29
1 -0.29
10 -0.15
11 -0.15
12 -0.15
13 -0.15
14 -0.15
15 -0.15
16 -0.15
17 -0.15
18 0.08
19 0.08
2 -0.29
20 0.28
21 0.28
23 0.15
24 0.15
25 0.15
26 0.15
27 0.15
28 0.15
29 0.15
3 -0.29
30 0.15
4 -0.36
5 -0.36
6 0.29
7 -0.14
8 -0.14
9 0.87

>  <PUBCHEM_EFFECTIVE_ROTOR_COUNT>
5

>  <PUBCHEM_PHARMACOPHORE_FEATURES>
4
1 4 acceptor
1 5 acceptor
6 7 10 12 14 16 18 rings
6 8 11 13 15 17 19 rings

>  <PUBCHEM_HEAVY_ATOM_COUNT>
21

>  <PUBCHEM_ATOM_DEF_STEREO_COUNT>
0

>  <PUBCHEM_ATOM_UDEF_STEREO_COUNT>
0

>  <PUBCHEM_BOND_DEF_STEREO_COUNT>
0

>  <PUBCHEM_BOND_UDEF_STEREO_COUNT>
0

>  <PUBCHEM_ISOTOPIC_ATOM_COUNT>
0

>  <PUBCHEM_COMPONENT_COUNT>
1

>  <PUBCHEM_CACTVS_TAUTO_COUNT>
1

>  <PUBCHEM_CONFORMER_ID>
0000101300000001

>  <PUBCHEM_MMFF94_ENERGY>
86.1769

>  <PUBCHEM_FEATURE_SELFOVERLAP>
20.298

>  <PUBCHEM_SHAPE_FINGERPRINT>
10165383 225 18269295571535372481
10498660 4 18341891896317422161
105312 117 18411423946658665300
12173636 292 18194115450658807814
12363563 72 9367347041577765448
12633257 1 14996286950195132620
12730499 353 18339651036322854089
12788726 201 18049145958996528211
12892183 10 15213290885790090721
13134695 92 17832700171433738046
13294875 104 17988063531529579946
13544653 18 9295288313884463498
13583140 156 16733536242866684037
13681431 1 17623577440707830271
14142880 1 18190732218772424671
14341114 328 16008760133794211596
15163728 17 18338245868567726749
15342168 16 18335415738701906021
167882 2 18338518530503641470
17134986 127 18411980247875962038
17980427 23 17240488039579399423
1813 80 17268071242419314398
18186145 218 17989495120984820216
18785283 64 18190459368137893666
20600515 1 16298398924665022413
21524375 3 18272928306319198666
21756936 100 17314518222081940516
2255824 54 18054504699829561551
22907989 373 17840869895051796788
23419403 2 17338773353231337743
23557571 272 18055085504104106452
23559900 14 17315370128517898743
238 59 18129946659287304151
25 1 17846230946498224466
283562 15 18050843617840081882
3057174 1 18273216369786467094
350125 39 18411707598825728818
3729539 64 18051160033114081702
474 4 18339636729417571281
495365 180 18192704554086538683
53917941 68 18129089186346597816
59755656 520 17988098771287798363
6327066 14 18333728043760901869
633830 44 17701841919976761553
6442390 28 18340217370389296851
7471813 234 17555438540729068555
7808743 9 18262519320324032428
7970288 3 9511461130121791069
81228 2 17766553929900720810
84936 182 18128533760896395681
9999458 23 17896316909331588730

>  <PUBCHEM_SHAPE_MULTIPOLES>
426.04
8.68
3.64
1.58
0.6
3.7
0.09
-11.28
1.72
-0.19
0.85
-0.12
-0.05
0.45

>  <PUBCHEM_SHAPE_SELFOVERLAP>
873.599

>  <PUBCHEM_SHAPE_VOLUME>
245.6

>  <PUBCHEM_COORDINATE_TYPE>
2
5
10

>  <Energy>
98.4909

$$$$
