11954041
 OpenBabel06182610193D

 50 53  0  0  1  0  0  0  0  0999 V2000
   -4.6684   -0.8542    0.5491 O   0  0  0  0  0  0  0  0  0  0  0  0
    0.2098   -2.2109    0.5858 O   0  0  0  0  0  0  0  0  0  0  0  0
    6.2755    0.0687    0.1132 O   0  0  0  0  0  0  0  0  0  0  0  0
   -2.2585   -0.3605    0.3279 C   0  0  1  0  0  0  0  0  0  0  0  0
   -1.5258    0.9951    0.2425 C   0  0  2  0  0  0  0  0  0  0  0  0
   -0.0162    0.8970    0.5094 C   0  0  1  0  0  0  0  0  0  0  0  0
    0.6156   -0.0636   -0.5454 C   0  0  2  0  0  0  0  0  0  0  0  0
   -3.7277    0.0947    0.0670 C   0  0  2  0  0  0  0  0  0  0  0  0
   -1.6407   -1.3025   -0.7295 C   0  0  0  0  0  0  0  0  0  0  0  0
   -2.3838    1.9087    1.1135 C   0  0  0  0  0  0  0  0  0  0  0  0
   -0.1088   -1.4489   -0.5818 C   0  0  2  0  0  0  0  0  0  0  0  0
   -3.8297    1.4128    0.8833 C   0  0  0  0  0  0  0  0  0  0  0  0
    0.6385    2.2964    0.5273 C   0  0  0  0  0  0  0  0  0  0  0  0
   -2.1921   -1.0110    1.7428 C   0  0  0  0  0  0  0  0  0  0  0  0
    2.1320   -0.0938   -0.3665 C   0  0  0  0  0  0  0  0  0  0  0  0
    1.9841    2.4055   -0.1879 C   0  0  0  0  0  0  0  0  0  0  0  0
    2.7867    1.1353   -0.1476 C   0  0  0  0  0  0  0  0  0  0  0  0
   -4.0319    0.3511   -1.3579 C   0  0  0  0  0  0  0  0  0  0  0  0
    2.9101   -1.2567   -0.4542 C   0  0  0  0  0  0  0  0  0  0  0  0
    4.1810    1.1792    0.0071 C   0  0  0  0  0  0  0  0  0  0  0  0
   -0.3221   -3.5257    0.5443 C   0  0  0  0  0  0  0  0  0  0  0  0
    4.2966   -1.2102   -0.2858 C   0  0  0  0  0  0  0  0  0  0  0  0
    4.9228    0.0056   -0.0499 C   0  0  0  0  0  0  0  0  0  0  0  0
   -4.2715    0.5654   -2.5082 C   0  0  0  0  0  0  0  0  0  0  0  0
   -4.4899   -1.0400    1.4843 H   0  0  0  0  0  0  0  0  0  0  0  0
    6.6902    0.8938    0.2721 H   0  0  0  0  0  0  0  0  0  0  0  0
   -1.4593    1.4167   -0.7387 H   0  0  0  0  0  0  0  0  0  0  0  0
    0.1625    0.4866    1.4812 H   0  0  0  0  0  0  0  0  0  0  0  0
    0.4552    0.3094   -1.5354 H   0  0  0  0  0  0  0  0  0  0  0  0
   -1.8541   -0.9109   -1.7022 H   0  0  0  0  0  0  0  0  0  0  0  0
   -2.0714   -2.2716   -0.5876 H   0  0  0  0  0  0  0  0  0  0  0  0
   -2.2805    2.9291    0.8085 H   0  0  0  0  0  0  0  0  0  0  0  0
   -2.1000    1.8736    2.1446 H   0  0  0  0  0  0  0  0  0  0  0  0
    0.2456   -1.9696   -1.4468 H   0  0  0  0  0  0  0  0  0  0  0  0
   -4.3097    1.2287    1.8216 H   0  0  0  0  0  0  0  0  0  0  0  0
   -4.4078    2.1451    0.3593 H   0  0  0  0  0  0  0  0  0  0  0  0
    0.7851    2.5781    1.5491 H   0  0  0  0  0  0  0  0  0  0  0  0
   -0.0298    2.9388   -0.0073 H   0  0  0  0  0  0  0  0  0  0  0  0
   -2.6235   -0.3462    2.4617 H   0  0  0  0  0  0  0  0  0  0  0  0
   -1.1711   -1.2011    2.0004 H   0  0  0  0  0  0  0  0  0  0  0  0
   -2.7361   -1.9324    1.7376 H   0  0  0  0  0  0  0  0  0  0  0  0
    2.5540    3.1817    0.2785 H   0  0  0  0  0  0  0  0  0  0  0  0
    1.7786    2.6167   -1.2166 H   0  0  0  0  0  0  0  0  0  0  0  0
    2.4517   -2.1612   -0.6461 H   0  0  0  0  0  0  0  0  0  0  0  0
    4.6550    2.0826    0.1630 H   0  0  0  0  0  0  0  0  0  0  0  0
   -0.0537   -4.0474    1.4391 H   0  0  0  0  0  0  0  0  0  0  0  0
    0.0745   -4.0442   -0.3035 H   0  0  0  0  0  0  0  0  0  0  0  0
   -1.3881   -3.4769    0.4659 H   0  0  0  0  0  0  0  0  0  0  0  0
    4.8533   -2.0777   -0.3367 H   0  0  0  0  0  0  0  0  0  0  0  0
   -4.4709    0.7437   -3.4655 H   0  0  0  0  0  0  0  0  0  0  0  0
  1  8  1  0  0  0  0
  1 25  1  0  0  0  0
  2 11  1  0  0  0  0
  2 21  1  0  0  0  0
  3 23  1  0  0  0  0
  3 26  1  0  0  0  0
  4  5  1  0  0  0  0
  4  8  1  0  0  0  0
  4  9  1  0  0  0  0
  4 14  1  1  0  0  0
  5  6  1  0  0  0  0
  5 10  1  0  0  0  0
  5 27  1  6  0  0  0
  6  7  1  0  0  0  0
  6 13  1  0  0  0  0
  6 28  1  1  0  0  0
  7 11  1  0  0  0  0
  7 15  1  0  0  0  0
  7 29  1  6  0  0  0
  8 12  1  0  0  0  0
  8 18  1  6  0  0  0
  9 11  1  0  0  0  0
  9 30  1  0  0  0  0
  9 31  1  0  0  0  0
 10 12  1  0  0  0  0
 10 32  1  0  0  0  0
 10 33  1  0  0  0  0
 11 34  1  6  0  0  0
 12 35  1  0  0  0  0
 12 36  1  0  0  0  0
 13 16  1  0  0  0  0
 13 37  1  0  0  0  0
 13 38  1  0  0  0  0
 14 39  1  0  0  0  0
 14 40  1  0  0  0  0
 14 41  1  0  0  0  0
 15 17  2  0  0  0  0
 15 19  1  0  0  0  0
 16 17  1  0  0  0  0
 16 42  1  0  0  0  0
 16 43  1  0  0  0  0
 17 20  1  0  0  0  0
 18 24  3  0  0  0  0
 19 22  2  0  0  0  0
 19 44  1  0  0  0  0
 20 23  2  0  0  0  0
 20 45  1  0  0  0  0
 21 46  1  0  0  0  0
 21 47  1  0  0  0  0
 21 48  1  0  0  0  0
 22 23  1  0  0  0  0
 22 49  1  0  0  0  0
 24 50  1  0  0  0  0
M  END
>  <PUBCHEM_COMPOUND_CID>
11954041

>  <PUBCHEM_CONFORMER_RMSD>
0.6

>  <PUBCHEM_CONFORMER_DIVERSEORDER>
1

>  <PUBCHEM_MMFF94_PARTIAL_CHARGES>
22
1 -0.68
11 0.28
15 -0.14
16 0.14
17 -0.14
18 -0.2
19 -0.15
2 -0.56
20 -0.15
21 0.28
22 -0.15
23 0.08
24 -0.18
3 -0.53
42 0.4
43 0.15
44 0.15
48 0.15
49 0.18
50 0.45
7 0.14
8 0.48

>  <PUBCHEM_EFFECTIVE_ROTOR_COUNT>
2.4

>  <PUBCHEM_PHARMACOPHORE_FEATURES>
9
1 1 acceptor
1 1 donor
1 2 acceptor
1 24 hydrophobe
1 3 donor
5 4 5 8 10 12 rings
6 15 17 19 20 22 23 rings
6 4 5 6 7 9 11 rings
6 6 7 13 15 16 17 rings

>  <PUBCHEM_HEAVY_ATOM_COUNT>
24

>  <PUBCHEM_ATOM_DEF_STEREO_COUNT>
6

>  <PUBCHEM_ATOM_UDEF_STEREO_COUNT>
0

>  <PUBCHEM_BOND_DEF_STEREO_COUNT>
0

>  <PUBCHEM_BOND_UDEF_STEREO_COUNT>
0

>  <PUBCHEM_ISOTOPIC_ATOM_COUNT>
0

>  <PUBCHEM_COMPONENT_COUNT>
1

>  <PUBCHEM_CACTVS_TAUTO_COUNT>
9

>  <PUBCHEM_CONFORMER_ID>
00B6677900000001

>  <PUBCHEM_MMFF94_ENERGY>
97.8545

>  <PUBCHEM_FEATURE_SELFOVERLAP>
45.766

>  <PUBCHEM_SHAPE_FINGERPRINT>
10062212 137 17989488494246077049
107951 10 17167860863800277867
10906281 52 18270699627100217628
10967382 1 18412269419623925706
1100329 8 18340491182822071930
11315181 36 18410293627583941616
12011746 2 18412263930803460212
12035759 4 18129924729416334935
12236239 1 17560802121890134597
12403259 415 18114178657628215781
12403260 363 18341334478334170793
12507557 5 18409731776551232833
12553582 1 18270697445072487636
12788726 201 18340765936781872944
12969540 114 18334562538736727222
13140716 1 18126008414868582200
13224815 77 18131078112222779240
13464514 151 18044365033789362357
13583140 156 17530685432794492553
14787075 74 17988920076730755424
14790565 3 18339935809260221032
15099037 51 18408602573909348852
15163728 17 16734934650480996693
15196674 1 18342463599540254008
15209289 33 18412831286971262457
15788980 27 16805324392384420588
16945 1 18059586814197195725
17349148 13 18060419122876990044
1813 80 17749116565396589580
18186145 218 18334861601678133877
192875 21 18131345323755758477
19591789 44 18339084765922187562
200 152 17989203741745095933
20028762 73 18129947896317780231
20600515 1 18339940263225547324
21033648 29 18188194485732635525
21267235 1 18342188764867780622
22393880 68 18266155345421268127
23402539 116 18131349691626605396
23557571 272 12607137196277058907
23559900 14 18270960271554523800
335352 9 18411704292327833564
34934 24 18057045701450642049
350125 39 18263933296666914387
392239 28 18195832823898266027
474 4 18411142402777672915
484989 97 18192709171340665791
5104073 3 18343027657347227816
6138700 20 18267591213091884934
633830 44 18270973340437969831
9709674 26 18130236990565694294

>  <PUBCHEM_SHAPE_MULTIPOLES>
476.3
9.81
2.59
1.31
6.87
1.02
0.45
-1.22
1.67
0.24
-0.66
-2.04
-0.04
0.16

>  <PUBCHEM_SHAPE_SELFOVERLAP>
1033.704

>  <PUBCHEM_SHAPE_VOLUME>
259.1

>  <PUBCHEM_COORDINATE_TYPE>
2
5
10

>  <Energy>
88.9969

$$$$
