242862
 OpenBabel06182610193D

 48 51  0  0  1  0  0  0  0  0999 V2000
   -5.0526    1.5394   -0.1208 O   0  0  0  0  0  0  0  0  0  0  0  0
   -5.2540   -1.0715   -0.9216 O   0  0  0  0  0  0  0  0  0  0  0  0
    5.7896   -0.2862   -0.4349 O   0  0  0  0  0  0  0  0  0  0  0  0
   -2.6874    0.7711   -0.0892 C   0  0  1  0  0  0  0  0  0  0  0  0
   -2.0901   -0.5332    0.4797 C   0  0  2  0  0  0  0  0  0  0  0  0
   -0.6361   -0.7347    0.0539 C   0  0  1  0  0  0  0  0  0  0  0  0
    0.2152    0.4414    0.6143 C   0  0  2  0  0  0  0  0  0  0  0  0
   -4.1253    0.6396    0.4569 C   0  0  2  0  0  0  0  0  0  0  0  0
   -1.8896    1.9481    0.4883 C   0  0  0  0  0  0  0  0  0  0  0  0
   -3.1286   -1.5938    0.1212 C   0  0  0  0  0  0  0  0  0  0  0  0
   -4.4775   -0.8593    0.2503 C   0  0  2  0  0  0  0  0  0  0  0  0
   -0.3808    1.8169    0.2036 C   0  0  0  0  0  0  0  0  0  0  0  0
   -0.0527   -2.0555    0.5600 C   0  0  0  0  0  0  0  0  0  0  0  0
   -2.6852    0.8671   -1.6336 C   0  0  0  0  0  0  0  0  0  0  0  0
    1.6921    0.2548    0.2990 C   0  0  0  0  0  0  0  0  0  0  0  0
    1.3573   -2.2531   -0.0120 C   0  0  0  0  0  0  0  0  0  0  0  0
    2.2229   -1.0279    0.0472 C   0  0  0  0  0  0  0  0  0  0  0  0
    2.5791    1.3426    0.3396 C   0  0  0  0  0  0  0  0  0  0  0  0
    3.6014   -1.1823   -0.2090 C   0  0  0  0  0  0  0  0  0  0  0  0
    3.9337    1.1799    0.0955 C   0  0  0  0  0  0  0  0  0  0  0  0
    4.4578   -0.0781   -0.1847 C   0  0  0  0  0  0  0  0  0  0  0  0
    6.6149    0.8828   -0.3900 C   0  0  0  0  0  0  0  0  0  0  0  0
   -4.7673    2.4509    0.0487 H   0  0  0  0  0  0  0  0  0  0  0  0
   -6.1017   -0.6078   -0.8361 H   0  0  0  0  0  0  0  0  0  0  0  0
   -1.9508   -0.5557    1.5403 H   0  0  0  0  0  0  0  0  0  0  0  0
   -0.6108   -0.7616   -1.0155 H   0  0  0  0  0  0  0  0  0  0  0  0
    0.1637    0.4329    1.6830 H   0  0  0  0  0  0  0  0  0  0  0  0
   -4.1824    0.9205    1.4878 H   0  0  0  0  0  0  0  0  0  0  0  0
   -2.0398    1.9809    1.5472 H   0  0  0  0  0  0  0  0  0  0  0  0
   -2.2378    2.8451    0.0204 H   0  0  0  0  0  0  0  0  0  0  0  0
   -3.0789   -2.4188    0.8007 H   0  0  0  0  0  0  0  0  0  0  0  0
   -2.9763   -2.0036   -0.8555 H   0  0  0  0  0  0  0  0  0  0  0  0
   -5.0651   -1.2176    1.0696 H   0  0  0  0  0  0  0  0  0  0  0  0
   -0.2219    1.9542   -0.8456 H   0  0  0  0  0  0  0  0  0  0  0  0
    0.1144    2.5606    0.7922 H   0  0  0  0  0  0  0  0  0  0  0  0
   -0.6797   -2.8641    0.2469 H   0  0  0  0  0  0  0  0  0  0  0  0
   -0.0008   -2.0328    1.6285 H   0  0  0  0  0  0  0  0  0  0  0  0
   -3.2402    0.0489   -2.0426 H   0  0  0  0  0  0  0  0  0  0  0  0
   -1.6777    0.8292   -1.9918 H   0  0  0  0  0  0  0  0  0  0  0  0
   -3.1362    1.7897   -1.9342 H   0  0  0  0  0  0  0  0  0  0  0  0
    1.2654   -2.5499   -1.0359 H   0  0  0  0  0  0  0  0  0  0  0  0
    1.8335   -2.9954    0.5939 H   0  0  0  0  0  0  0  0  0  0  0  0
    2.2145    2.2835    0.5558 H   0  0  0  0  0  0  0  0  0  0  0  0
    3.9810   -2.1193   -0.4164 H   0  0  0  0  0  0  0  0  0  0  0  0
    4.5597    1.9999    0.1219 H   0  0  0  0  0  0  0  0  0  0  0  0
    7.6289    0.6116   -0.5979 H   0  0  0  0  0  0  0  0  0  0  0  0
    6.5560    1.3238    0.5831 H   0  0  0  0  0  0  0  0  0  0  0  0
    6.2767    1.5865   -1.1216 H   0  0  0  0  0  0  0  0  0  0  0  0
  1  8  1  0  0  0  0
  1 23  1  0  0  0  0
  2 11  1  0  0  0  0
  2 24  1  0  0  0  0
  3 21  1  0  0  0  0
  3 22  1  0  0  0  0
  4  5  1  0  0  0  0
  4  8  1  0  0  0  0
  4  9  1  0  0  0  0
  4 14  1  6  0  0  0
  5  6  1  0  0  0  0
  5 10  1  0  0  0  0
  5 25  1  1  0  0  0
  6  7  1  0  0  0  0
  6 13  1  0  0  0  0
  6 26  1  6  0  0  0
  7 12  1  0  0  0  0
  7 15  1  0  0  0  0
  7 27  1  1  0  0  0
  8 11  1  0  0  0  0
  8 28  1  1  0  0  0
  9 12  1  0  0  0  0
  9 29  1  0  0  0  0
  9 30  1  0  0  0  0
 10 11  1  0  0  0  0
 10 31  1  0  0  0  0
 10 32  1  0  0  0  0
 11 33  1  1  0  0  0
 12 34  1  0  0  0  0
 12 35  1  0  0  0  0
 13 16  1  0  0  0  0
 13 36  1  0  0  0  0
 13 37  1  0  0  0  0
 14 38  1  0  0  0  0
 14 39  1  0  0  0  0
 14 40  1  0  0  0  0
 15 17  2  0  0  0  0
 15 18  1  0  0  0  0
 16 17  1  0  0  0  0
 16 41  1  0  0  0  0
 16 42  1  0  0  0  0
 17 19  1  0  0  0  0
 18 20  2  0  0  0  0
 18 43  1  0  0  0  0
 19 21  2  0  0  0  0
 19 44  1  0  0  0  0
 20 21  1  0  0  0  0
 20 45  1  0  0  0  0
 22 46  1  0  0  0  0
 22 47  1  0  0  0  0
 22 48  1  0  0  0  0
M  END
>  <PUBCHEM_COMPOUND_CID>
242862

>  <PUBCHEM_CONFORMER_RMSD>
0.6

>  <PUBCHEM_CONFORMER_DIVERSEORDER>
1

>  <PUBCHEM_MMFF94_PARTIAL_CHARGES>
19
1 -0.68
11 0.28
15 -0.14
16 0.14
17 -0.14
18 -0.15
19 -0.15
2 -0.68
20 -0.15
21 0.08
22 0.28
3 -0.36
41 0.4
42 0.4
43 0.15
44 0.15
45 0.15
7 0.14
8 0.28

>  <PUBCHEM_EFFECTIVE_ROTOR_COUNT>
2.4

>  <PUBCHEM_PHARMACOPHORE_FEATURES>
9
1 1 acceptor
1 1 donor
1 2 acceptor
1 2 donor
1 3 acceptor
5 4 5 8 10 11 rings
6 15 17 18 19 20 21 rings
6 4 5 6 7 9 12 rings
6 6 7 13 15 16 17 rings

>  <PUBCHEM_HEAVY_ATOM_COUNT>
22

>  <PUBCHEM_ATOM_DEF_STEREO_COUNT>
6

>  <PUBCHEM_ATOM_UDEF_STEREO_COUNT>
0

>  <PUBCHEM_BOND_DEF_STEREO_COUNT>
0

>  <PUBCHEM_BOND_UDEF_STEREO_COUNT>
0

>  <PUBCHEM_ISOTOPIC_ATOM_COUNT>
0

>  <PUBCHEM_COMPONENT_COUNT>
1

>  <PUBCHEM_CACTVS_TAUTO_COUNT>
1

>  <PUBCHEM_CONFORMER_ID>
0003B4AE00000001

>  <PUBCHEM_MMFF94_ENERGY>
89.9395

>  <PUBCHEM_FEATURE_SELFOVERLAP>
45.78

>  <PUBCHEM_SHAPE_FINGERPRINT>
10411042 1 17761216913461020675
10498660 4 18335135362804182861
10616163 171 18413672405014271551
11578080 2 17242723187367255639
12011746 2 18408884061591691311
12236239 1 17561085800037323096
12403259 415 18412257372193584240
12403814 3 17675923179925676269
12670546 56 16298657309770552520
12788726 201 17488181479072795049
128620 24 18260831483743039454
13224815 77 18411131424698826547
13288520 33 18343866645428958845
13402501 40 18411139164578105528
13862211 1 18411978070507118546
14787075 74 18410009970178249643
14790565 3 18411145744231126384
15099037 51 18411421730740142914
15183329 4 18338808823696823630
15196674 1 18411138013168174066
15788980 27 14764349327517657546
16945 1 18194114118939267347
17349148 13 18407755928697383304
18186145 218 18408879629380581544
18681886 176 18340483461088266584
19489759 90 15864068771491674884
19591789 44 18267866262306806523
200 152 17917711300941655176
20645477 70 18271530793498442638
21267235 1 18340211885874042435
21279426 13 18339365137366512622
21709351 56 18408881853968133901
221357 26 18272369771802972304
23402539 116 18413105069782917308
23402655 69 18342738481457192218
23557571 272 18342464754606953359
23559900 14 18342734156768621080
2871803 45 18409725162354318563
3004659 81 18334018251587422390
335352 9 18411139129886005932
34934 24 18338233761397297491
350125 39 18410577288504048000
351380 180 18411702088856597042
3545911 37 18409732850171659664
4214541 1 18411983550605728897
4325135 7 18412262856787453167
4340502 62 16443350862474476418
474 4 17749396987615539326
474229 33 18410294731079339242
4990 188 18060425707198991934
5104073 3 18410293579653454611
542803 24 17603870005029352484
59755656 215 18410295804705313774
59755656 520 17385441042314941602
9709674 26 18411990130406280299

>  <PUBCHEM_SHAPE_MULTIPOLES>
435.14
11.95
2.09
0.86
8.32
0.32
0.2
-1.69
2.24
-0.5
-0.14
-0.48
-0.1
0.06

>  <PUBCHEM_SHAPE_SELFOVERLAP>
942.479

>  <PUBCHEM_SHAPE_VOLUME>
237.2

>  <PUBCHEM_COORDINATE_TYPE>
2
5
10

>  <Energy>
101.718

$$$$
