13089
 OpenBabel06182610193D

 28 29  0  0  1  0  0  0  0  0999 V2000
    0.1631   -2.6163   -1.7211 Cl  0  0  0  0  0  0  0  0  0  0  0  0
   -0.5993   -3.3704    0.9637 Cl  0  0  0  0  0  0  0  0  0  0  0  0
    2.1861   -2.9169    0.3663 Cl  0  0  0  0  0  0  0  0  0  0  0  0
    1.2102    1.4155    2.5364 Cl  0  0  0  0  0  0  0  0  0  0  0  0
   -5.1547    1.5235   -0.5528 Cl  0  0  0  0  0  0  0  0  0  0  0  0
    0.3671   -0.7947    0.4553 C   0  0  2  0  0  0  0  0  0  0  0  0
   -1.0247   -0.1990    0.1773 C   0  0  0  0  0  0  0  0  0  0  0  0
    1.4917    0.1948    0.0754 C   0  0  0  0  0  0  0  0  0  0  0  0
    0.5222   -2.2995    0.0131 C   0  0  0  0  0  0  0  0  0  0  0  0
   -1.3425    0.4229   -1.0425 C   0  0  0  0  0  0  0  0  0  0  0  0
   -2.0230   -0.2679    1.1670 C   0  0  0  0  0  0  0  0  0  0  0  0
    1.9093    1.2087    0.9671 C   0  0  0  0  0  0  0  0  0  0  0  0
    2.1138    0.1568   -1.1888 C   0  0  0  0  0  0  0  0  0  0  0  0
   -2.6149    0.9581   -1.2645 C   0  0  0  0  0  0  0  0  0  0  0  0
   -3.2981    0.2573    0.9401 C   0  0  0  0  0  0  0  0  0  0  0  0
    2.9208    2.1125    0.6132 C   0  0  0  0  0  0  0  0  0  0  0  0
    3.1187    1.0635   -1.5387 C   0  0  0  0  0  0  0  0  0  0  0  0
   -3.5883    0.8701   -0.2744 C   0  0  0  0  0  0  0  0  0  0  0  0
    3.5261    2.0377   -0.6386 C   0  0  0  0  0  0  0  0  0  0  0  0
    0.4839   -0.9032    1.5134 H   0  0  0  0  0  0  0  0  0  0  0  0
   -0.6273    0.4852   -1.7839 H   0  0  0  0  0  0  0  0  0  0  0  0
   -1.8104   -0.7129    2.0735 H   0  0  0  0  0  0  0  0  0  0  0  0
    1.8202   -0.5579   -1.8729 H   0  0  0  0  0  0  0  0  0  0  0  0
   -2.8319    1.4183   -2.1623 H   0  0  0  0  0  0  0  0  0  0  0  0
   -4.0226    0.1907    1.6719 H   0  0  0  0  0  0  0  0  0  0  0  0
    3.2186    2.8376    1.2844 H   0  0  0  0  0  0  0  0  0  0  0  0
    3.5593    1.0079   -2.4702 H   0  0  0  0  0  0  0  0  0  0  0  0
    4.2727    2.7023   -0.8952 H   0  0  0  0  0  0  0  0  0  0  0  0
  1  9  1  0  0  0  0
  2  9  1  0  0  0  0
  3  9  1  0  0  0  0
  4 12  1  0  0  0  0
  5 18  1  0  0  0  0
  6  7  1  0  0  0  0
  6  8  1  0  0  0  0
  6  9  1  0  0  0  0
  6 20  1  1  0  0  0
  7 10  2  0  0  0  0
  7 11  1  0  0  0  0
  8 12  1  0  0  0  0
  8 13  2  0  0  0  0
 10 14  1  0  0  0  0
 10 21  1  0  0  0  0
 11 15  2  0  0  0  0
 11 22  1  0  0  0  0
 12 16  2  0  0  0  0
 13 17  1  0  0  0  0
 13 23  1  0  0  0  0
 14 18  2  0  0  0  0
 14 24  1  0  0  0  0
 15 18  1  0  0  0  0
 15 25  1  0  0  0  0
 16 19  1  0  0  0  0
 16 26  1  0  0  0  0
 17 19  2  0  0  0  0
 17 27  1  0  0  0  0
 19 28  1  0  0  0  0
M  END
>  <PUBCHEM_COMPOUND_CID>
13089

>  <PUBCHEM_CONFORMER_RMSD>
0.6

>  <PUBCHEM_CONFORMER_DIVERSEORDER>
1
2
4
3

>  <PUBCHEM_MMFF94_PARTIAL_CHARGES>
27
1 -0.29
10 -0.15
11 -0.15
12 0.18
13 -0.15
14 -0.15
15 -0.15
16 -0.15
17 -0.15
18 0.18
19 -0.15
2 -0.29
21 0.15
22 0.15
23 0.15
24 0.15
25 0.15
26 0.15
27 0.15
28 0.15
3 -0.29
4 -0.18
5 -0.18
6 0.29
7 -0.14
8 -0.14
9 0.87

>  <PUBCHEM_EFFECTIVE_ROTOR_COUNT>
3

>  <PUBCHEM_PHARMACOPHORE_FEATURES>
2
6 7 10 11 14 15 18 rings
6 8 12 13 16 17 19 rings

>  <PUBCHEM_HEAVY_ATOM_COUNT>
19

>  <PUBCHEM_ATOM_DEF_STEREO_COUNT>
0

>  <PUBCHEM_ATOM_UDEF_STEREO_COUNT>
1

>  <PUBCHEM_BOND_DEF_STEREO_COUNT>
0

>  <PUBCHEM_BOND_UDEF_STEREO_COUNT>
0

>  <PUBCHEM_ISOTOPIC_ATOM_COUNT>
0

>  <PUBCHEM_COMPONENT_COUNT>
1

>  <PUBCHEM_CACTVS_TAUTO_COUNT>
1

>  <PUBCHEM_CONFORMER_ID>
0000332100000001

>  <PUBCHEM_MMFF94_ENERGY>
62.5863

>  <PUBCHEM_FEATURE_SELFOVERLAP>
10.149

>  <PUBCHEM_SHAPE_FINGERPRINT>
10165383 225 18193021363242560201
10498660 4 18410009970521608781
11101153 10 17477226937911107374
12532896 13 18267300009671019774
12716301 132 18052810640152355970
12730499 353 18337119994963002721
12788726 201 17690265436567170671
13132413 78 17764865793315712024
13134695 92 18123171416954825142
13294875 104 18129929161748484392
13681431 1 17908988707779569446
14955137 171 18058442102297413878
15309172 13 18335425711436508553
15490181 7 18198902702600532250
16945 1 18336268938244896722
17134986 127 18410574028317674964
1813 80 17626672591947369678
18186145 218 18130239232179965276
20559304 39 17773304639579743921
20600515 1 17041467324709356751
20645477 70 18270116804158979695
21524375 3 18341047505614769950
21756936 100 16155978251664508844
22149856 69 17824002069599052185
2255824 54 18265892445930523463
23419403 2 16740077096228221042
23526113 38 17844544381745139288
23559900 14 17749956531839295143
238 59 18272934912279313991
25 1 18059309724250381248
2748010 2 17842853384327387264
298252 57 18042135404480781664
3060560 45 17918269831458320157
350125 39 18335708281514244626
3729539 64 18047219404914858598
495365 180 18264197042092252805
5845 1 9706931151908033058
633830 44 17845112747520893905
6442390 28 18337681935245941411
7364860 26 18264485087841470654
7471813 234 17841981205133978641
7808743 9 17972324172654434516
81228 2 17548411961205752058
8272917 22 18269558239351395029
84936 182 18341331072456994193
9981440 41 15980002561988812544
9999458 23 17386003919058434346

>  <PUBCHEM_SHAPE_MULTIPOLES>
400.36
6.42
3.24
1.78
6.73
3.1
0.36
-5.28
-1.44
-1.99
0.26
-0.56
-0.3
0.46

>  <PUBCHEM_SHAPE_SELFOVERLAP>
808.014

>  <PUBCHEM_SHAPE_VOLUME>
226

>  <PUBCHEM_COORDINATE_TYPE>
2
5
10

>  <Energy>
83.2621

$$$$
