107377
 OpenBabel06182610193D

 40 40  0  0  1  0  0  0  0  0999 V2000
    0.0807    0.3512   -0.0906 O   0  0  0  0  0  0  0  0  0  0  0  0
    1.0250    2.3530   -0.7147 O   0  0  0  0  0  0  0  0  0  0  0  0
    6.0167   -1.3691    0.6909 O   0  0  0  0  0  0  0  0  0  0  0  0
   -2.2880   -0.1048    0.1453 C   0  0  1  0  0  0  0  0  0  0  0  0
   -3.6842    0.5511    0.0998 C   0  0  0  0  0  0  0  0  0  0  0  0
   -2.1756   -1.4118   -0.6737 C   0  0  0  0  0  0  0  0  0  0  0  0
   -4.8064   -0.3495    0.6281 C   0  0  0  0  0  0  0  0  0  0  0  0
   -1.2203    0.9288   -0.2630 C   0  0  0  0  0  0  0  0  0  0  0  0
   -6.1612    0.3593    0.5756 C   0  0  0  0  0  0  0  0  0  0  0  0
   -2.4446   -1.2661   -2.1656 C   0  0  0  0  0  0  0  0  0  0  0  0
   -7.2803   -0.5385    1.0802 C   0  0  0  0  0  0  0  0  0  0  0  0
    1.1111    1.1901   -0.3572 C   0  0  0  0  0  0  0  0  0  0  0  0
    2.3970    0.5013   -0.0863 C   0  0  0  0  0  0  0  0  0  0  0  0
    3.5151    1.2770    0.2494 C   0  0  0  0  0  0  0  0  0  0  0  0
    2.5159   -0.8934   -0.1692 C   0  0  0  0  0  0  0  0  0  0  0  0
    4.7410    0.6622    0.5193 C   0  0  0  0  0  0  0  0  0  0  0  0
    3.7428   -1.5033    0.0936 C   0  0  0  0  0  0  0  0  0  0  0  0
    4.8418   -0.7243    0.4381 C   0  0  0  0  0  0  0  0  0  0  0  0
    6.7793   -0.8781    0.9261 H   0  0  0  0  0  0  0  0  0  0  0  0
   -2.1173   -0.4120    1.1559 H   0  0  0  0  0  0  0  0  0  0  0  0
   -3.9051    0.8051   -0.9158 H   0  0  0  0  0  0  0  0  0  0  0  0
   -3.6468    1.4098    0.7370 H   0  0  0  0  0  0  0  0  0  0  0  0
   -2.8800   -2.1128   -0.2771 H   0  0  0  0  0  0  0  0  0  0  0  0
   -1.1585   -1.7319   -0.5848 H   0  0  0  0  0  0  0  0  0  0  0  0
   -4.5914   -0.6153    1.6421 H   0  0  0  0  0  0  0  0  0  0  0  0
   -4.8579   -1.2215    0.0102 H   0  0  0  0  0  0  0  0  0  0  0  0
   -1.3586    1.2011   -1.2885 H   0  0  0  0  0  0  0  0  0  0  0  0
   -1.3112    1.8023    0.3483 H   0  0  0  0  0  0  0  0  0  0  0  0
   -6.3687    0.6381   -0.4364 H   0  0  0  0  0  0  0  0  0  0  0  0
   -6.1131    1.2223    1.2063 H   0  0  0  0  0  0  0  0  0  0  0  0
   -3.4543   -0.9458   -2.3164 H   0  0  0  0  0  0  0  0  0  0  0  0
   -2.2935   -2.2087   -2.6490 H   0  0  0  0  0  0  0  0  0  0  0  0
   -1.7749   -0.5416   -2.5797 H   0  0  0  0  0  0  0  0  0  0  0  0
   -7.3453   -1.4093    0.4617 H   0  0  0  0  0  0  0  0  0  0  0  0
   -8.2079   -0.0062    1.0453 H   0  0  0  0  0  0  0  0  0  0  0  0
   -7.0751   -0.8318    2.0886 H   0  0  0  0  0  0  0  0  0  0  0  0
    3.4330    2.3046    0.2974 H   0  0  0  0  0  0  0  0  0  0  0  0
    1.6972   -1.4677   -0.4241 H   0  0  0  0  0  0  0  0  0  0  0  0
    5.5634    1.2303    0.7763 H   0  0  0  0  0  0  0  0  0  0  0  0
    3.8344   -2.5294    0.0325 H   0  0  0  0  0  0  0  0  0  0  0  0
  1  8  1  0  0  0  0
  1 12  1  0  0  0  0
  2 12  2  0  0  0  0
  3 18  1  0  0  0  0
  3 19  1  0  0  0  0
  4  5  1  0  0  0  0
  4  6  1  0  0  0  0
  4  8  1  0  0  0  0
  4 20  1  1  0  0  0
  5  7  1  0  0  0  0
  5 21  1  0  0  0  0
  5 22  1  0  0  0  0
  6 10  1  0  0  0  0
  6 23  1  0  0  0  0
  6 24  1  0  0  0  0
  7  9  1  0  0  0  0
  7 25  1  0  0  0  0
  7 26  1  0  0  0  0
  8 27  1  0  0  0  0
  8 28  1  0  0  0  0
  9 11  1  0  0  0  0
  9 29  1  0  0  0  0
  9 30  1  0  0  0  0
 10 31  1  0  0  0  0
 10 32  1  0  0  0  0
 10 33  1  0  0  0  0
 11 34  1  0  0  0  0
 11 35  1  0  0  0  0
 11 36  1  0  0  0  0
 12 13  1  0  0  0  0
 13 14  2  0  0  0  0
 13 15  1  0  0  0  0
 14 16  1  0  0  0  0
 14 37  1  0  0  0  0
 15 17  2  0  0  0  0
 15 38  1  0  0  0  0
 16 18  2  0  0  0  0
 16 39  1  0  0  0  0
 17 18  1  0  0  0  0
 17 40  1  0  0  0  0
M  END
>  <PUBCHEM_COMPOUND_CID>
107377

>  <PUBCHEM_CONFORMER_RMSD>
0.8

>  <PUBCHEM_CONFORMER_DIVERSEORDER>
1
101
91
108
71
113
125
240
219
252
15
150
30
92
190
248
225
77
47
144
16
267
222
55
233
26
220
40
99
226
244
134
140
46
180
272
100
229
175
133
202
27
72
259
268
223
247
206
171
109
75
73
5
242
85
189
211
111
174
234
48
3
94
254
193
239
218
141
255
235
86
146
142
56
90
192
7
4
270
275
117
213
83
195
194
80
106
182
260
210
12
212
118
115
119
98
231
184
19
165
181
61
208
66
201
209
6
78
273
112
241
224
230
65
199
105
188
17
161
8
21
179
28
262
205
95
88
124
51
20
152
232
203
217
2
23
138
41
93
238
126
228
129
58
13
123
97
250
168
104
44
216
246
52
36
63
59
147
265
70
245
145
149
183
191
159
130
82
33
166
221
170
37
38
18
257
57
103
84
31
249
162
237
87
139
131
74
164
148
122
14
53
198
60
11
22
200
256
160
67
158
169
227
42
9
107
173
274
135
155
49
50
264
79
62
151
68
261
163
96
143
176
243
120
251
54
45
64
110
35
172
29
34
185
204
187
266
167
76
214
81
43
137
154
271
69
153
10
39
127
263
136
253
25
32
157
128
236
269
177
89
196
114
258
186
102
215
197
121
24
132
116
178
156
207

>  <PUBCHEM_MMFF94_PARTIAL_CHARGES>
16
1 -0.43
12 0.63
13 0.09
14 -0.15
15 -0.15
16 -0.15
17 -0.15
18 0.08
2 -0.57
3 -0.53
36 0.15
37 0.15
38 0.15
39 0.15
40 0.45
8 0.28

>  <PUBCHEM_EFFECTIVE_ROTOR_COUNT>
8

>  <PUBCHEM_PHARMACOPHORE_FEATURES>
6
1 10 hydrophobe
1 11 hydrophobe
1 2 acceptor
1 3 donor
5 4 5 6 7 9 hydrophobe
6 13 14 15 16 17 18 rings

>  <PUBCHEM_HEAVY_ATOM_COUNT>
18

>  <PUBCHEM_ATOM_DEF_STEREO_COUNT>
0

>  <PUBCHEM_ATOM_UDEF_STEREO_COUNT>
1

>  <PUBCHEM_BOND_DEF_STEREO_COUNT>
0

>  <PUBCHEM_BOND_UDEF_STEREO_COUNT>
0

>  <PUBCHEM_ISOTOPIC_ATOM_COUNT>
0

>  <PUBCHEM_COMPONENT_COUNT>
1

>  <PUBCHEM_CACTVS_TAUTO_COUNT>
3

>  <PUBCHEM_CONFORMER_ID>
0001A37100000001

>  <PUBCHEM_MMFF94_ENERGY>
33.3704

>  <PUBCHEM_FEATURE_SELFOVERLAP>
30.448

>  <PUBCHEM_SHAPE_FINGERPRINT>
117890 112 15195572286363096307
12236239 1 18272651268539219667
12553582 1 18261095358334356138
12596602 18 18131634521336784659
12616971 3 18342450465540702166
12633257 1 17203604899891596065
12714333 28 12247681556821902089
13533116 47 15338571430959964335
13551218 46 18342458102008833335
13685833 64 18187086143619820314
14123256 10 10809345546769584243
14251764 18 18201440315993387463
15501527 24 7925911470024161857
15527383 91 18412824694449865520
1813 80 17530688684243290236
19050596 39 18131062762484202606
19141452 34 18343016718224039591
20645477 70 18187646886466583402
21267235 1 18336551530118644298
21424621 283 14260810377698874011
2297311 6 15285356211301524927
23352939 185 8286202739050041087
23503953 91 17704065214023872654
23557571 272 15285352886469486079
23622692 88 18273497875202059509
29717793 49 12107778601675677416
351380 3 18334009471977852898
465052 167 18260558835356879043
5104073 3 18058440066319008930
59755656 215 16877939426101541299

>  <PUBCHEM_SHAPE_MULTIPOLES>
352.82
15.61
1.64
1.1
13.53
0.08
0.43
-3.07
-7.31
-1.23
0.43
0.96
-0.33
-0.82

>  <PUBCHEM_SHAPE_SELFOVERLAP>
704.785

>  <PUBCHEM_SHAPE_VOLUME>
208.8

>  <PUBCHEM_COORDINATE_TYPE>
2
5
10

>  <Energy>
22.5231

$$$$
