727
 OpenBabel06182610193D

 18 18  0  0  0  0  0  0  0  0999 V2000
    3.1935   -0.2416   -0.1575 Cl  0  0  0  0  0  0  0  0  0  0  0  0
    1.0627   -1.6652    1.8903 Cl  0  0  0  0  0  0  0  0  0  0  0  0
    1.4724    2.5146   -0.7607 Cl  0  0  0  0  0  0  0  0  0  0  0  0
   -1.0616   -1.6655   -1.8902 Cl  0  0  0  0  0  0  0  0  0  0  0  0
   -1.4718    2.5141    0.7592 Cl  0  0  0  0  0  0  0  0  0  0  0  0
   -3.1924   -0.2422    0.1570 Cl  0  0  0  0  0  0  0  0  0  0  0  0
    1.4150   -0.2096   -0.4491 C   0  0  1  0  0  0  0  0  0  0  0  0
    0.7591   -1.4826    0.1203 C   0  0  2  0  0  0  0  0  0  0  0  0
    0.7681    1.0815    0.0879 C   0  0  2  0  0  0  0  0  0  0  0  0
   -0.7573   -1.4826   -0.1205 C   0  0  1  0  0  0  0  0  0  0  0  0
   -0.7675    1.0817   -0.0893 C   0  0  1  0  0  0  0  0  0  0  0  0
   -1.4142   -0.2097    0.4484 C   0  0  1  0  0  0  0  0  0  0  0  0
    1.2454   -0.2026   -1.5056 H   0  0  0  0  0  0  0  0  0  0  0  0
    1.2065   -2.3063   -0.3957 H   0  0  0  0  0  0  0  0  0  0  0  0
    0.9750    1.1325    1.1364 H   0  0  0  0  0  0  0  0  0  0  0  0
   -1.2039   -2.3063    0.3962 H   0  0  0  0  0  0  0  0  0  0  0  0
   -0.9745    1.1330   -1.1378 H   0  0  0  0  0  0  0  0  0  0  0  0
   -1.2451   -0.2024    1.5049 H   0  0  0  0  0  0  0  0  0  0  0  0
  1  7  1  0  0  0  0
  2  8  1  0  0  0  0
  3  9  1  0  0  0  0
  4 10  1  0  0  0  0
  5 11  1  0  0  0  0
  6 12  1  0  0  0  0
  7  8  1  0  0  0  0
  7  9  1  0  0  0  0
  7 13  1  6  0  0  0
  8 10  1  0  0  0  0
  8 14  1  6  0  0  0
  9 11  1  0  0  0  0
  9 15  1  1  0  0  0
 10 12  1  0  0  0  0
 10 16  1  1  0  0  0
 11 12  1  0  0  0  0
 11 17  1  6  0  0  0
 12 18  1  1  0  0  0
M  END
>  <PUBCHEM_COMPOUND_CID>
727

>  <PUBCHEM_CONFORMER_RMSD>
0.4

>  <PUBCHEM_CONFORMER_DIVERSEORDER>
1
2

>  <PUBCHEM_MMFF94_PARTIAL_CHARGES>
12
1 -0.29
10 0.29
11 0.29
12 0.29
2 -0.29
3 -0.29
4 -0.29
5 -0.29
6 -0.29
7 0.29
8 0.29
9 0.29

>  <PUBCHEM_EFFECTIVE_ROTOR_COUNT>
1.2

>  <PUBCHEM_PHARMACOPHORE_FEATURES>
1
6 7 8 9 10 11 12 rings

>  <PUBCHEM_HEAVY_ATOM_COUNT>
12

>  <PUBCHEM_ATOM_DEF_STEREO_COUNT>
0

>  <PUBCHEM_ATOM_UDEF_STEREO_COUNT>
0

>  <PUBCHEM_BOND_DEF_STEREO_COUNT>
0

>  <PUBCHEM_BOND_UDEF_STEREO_COUNT>
0

>  <PUBCHEM_ISOTOPIC_ATOM_COUNT>
0

>  <PUBCHEM_COMPONENT_COUNT>
1

>  <PUBCHEM_CACTVS_TAUTO_COUNT>
1

>  <PUBCHEM_CONFORMER_ID>
000002D700000001

>  <PUBCHEM_MMFF94_ENERGY>
26.1419

>  <PUBCHEM_FEATURE_SELFOVERLAP>
5.074

>  <PUBCHEM_SHAPE_FINGERPRINT>
10353120 184 18336274508595725918
12423570 1 11527664116361824739
14251711 518 18410844469307007235
14817 1 13827618386062742679
16945 1 18266484090138137830
20511035 2 17264388960882029063
20645476 183 17536054468395602980
22112679 90 17986095521337034111
2334 1 17906739446201488871
23419403 2 15467380446809967723
23552423 10 18191863642023007862
23559900 14 17622466234808046852
241688 4 17976550415998519024
2748010 2 18053110514320504445
5084963 1 18272943708071668904
528862 383 18261104218677639083
535629 181 18198901611583783382
53812654 25 18130506456465497085
66348 1 18266460893019973509
68250623 7 18052268584793219351

>  <PUBCHEM_SHAPE_MULTIPOLES>
258.17
3.5
2.79
1.38
0
1.58
0
0.07
0
0
0
0
-0.8
-1.05

>  <PUBCHEM_SHAPE_SELFOVERLAP>
455.986

>  <PUBCHEM_SHAPE_VOLUME>
167.2

>  <PUBCHEM_COORDINATE_TYPE>
2
5
10

>  <Energy>
27.705

$$$$
