91589
 OpenBabel06182610193D

 23 24  0  0  0  0  0  0  0  0999 V2000
   -5.2641   -0.0041   -0.0011 Cl  0  0  0  0  0  0  0  0  0  0  0  0
    4.9496   -0.0303    0.0112 O   0  0  0  0  0  0  0  0  0  0  0  0
    0.7663   -0.0018   -0.0005 C   0  0  0  0  0  0  0  0  0  0  0  0
   -0.7164   -0.0033    0.0016 C   0  0  0  0  0  0  0  0  0  0  0  0
    1.4994    1.1527   -0.3435 C   0  0  0  0  0  0  0  0  0  0  0  0
    1.5054   -1.1517    0.3396 C   0  0  0  0  0  0  0  0  0  0  0  0
   -1.4520    1.1483    0.3426 C   0  0  0  0  0  0  0  0  0  0  0  0
   -1.4502   -1.1557   -0.3392 C   0  0  0  0  0  0  0  0  0  0  0  0
    2.8979    1.1634   -0.3378 C   0  0  0  0  0  0  0  0  0  0  0  0
    2.9034   -1.1508    0.3309 C   0  0  0  0  0  0  0  0  0  0  0  0
    3.5879    0.0079   -0.0028 C   0  0  0  0  0  0  0  0  0  0  0  0
   -2.8516    1.1533    0.3349 C   0  0  0  0  0  0  0  0  0  0  0  0
   -2.8505   -1.1611   -0.3329 C   0  0  0  0  0  0  0  0  0  0  0  0
   -3.5444   -0.0043    0.0002 C   0  0  0  0  0  0  0  0  0  0  0  0
    5.4421    0.7357   -0.2094 H   0  0  0  0  0  0  0  0  0  0  0  0
    0.9910    2.0118   -0.6055 H   0  0  0  0  0  0  0  0  0  0  0  0
    1.0034   -2.0146    0.6010 H   0  0  0  0  0  0  0  0  0  0  0  0
   -0.9468    2.0093    0.6044 H   0  0  0  0  0  0  0  0  0  0  0  0
   -0.9442   -2.0165   -0.5998 H   0  0  0  0  0  0  0  0  0  0  0  0
    3.4124    2.0244   -0.5809 H   0  0  0  0  0  0  0  0  0  0  0  0
    3.4236   -2.0089    0.5720 H   0  0  0  0  0  0  0  0  0  0  0  0
   -3.3675    2.0137    0.5770 H   0  0  0  0  0  0  0  0  0  0  0  0
   -3.3657   -2.0219   -0.5750 H   0  0  0  0  0  0  0  0  0  0  0  0
  1 14  1  0  0  0  0
  2 11  1  0  0  0  0
  2 15  1  0  0  0  0
  3  4  1  0  0  0  0
  3  5  2  0  0  0  0
  3  6  1  0  0  0  0
  4  7  2  0  0  0  0
  4  8  1  0  0  0  0
  5  9  1  0  0  0  0
  5 16  1  0  0  0  0
  6 10  2  0  0  0  0
  6 17  1  0  0  0  0
  7 12  1  0  0  0  0
  7 18  1  0  0  0  0
  8 13  2  0  0  0  0
  8 19  1  0  0  0  0
  9 11  2  0  0  0  0
  9 20  1  0  0  0  0
 10 11  1  0  0  0  0
 10 21  1  0  0  0  0
 12 14  2  0  0  0  0
 12 22  1  0  0  0  0
 13 14  1  0  0  0  0
 13 23  1  0  0  0  0
M  END
>  <PUBCHEM_COMPOUND_CID>
91589

>  <PUBCHEM_CONFORMER_RMSD>
0.4

>  <PUBCHEM_CONFORMER_DIVERSEORDER>
1
2

>  <PUBCHEM_MMFF94_PARTIAL_CHARGES>
21
1 -0.18
10 -0.15
11 0.08
12 -0.15
13 -0.15
14 0.18
15 0.15
16 0.15
17 0.15
18 0.15
19 0.15
2 -0.53
20 0.15
21 0.15
22 0.15
23 0.45
5 -0.15
6 -0.15
7 -0.15
8 -0.15
9 -0.15

>  <PUBCHEM_EFFECTIVE_ROTOR_COUNT>
1

>  <PUBCHEM_PHARMACOPHORE_FEATURES>
3
1 2 donor
6 3 5 6 9 10 11 rings
6 4 7 8 12 13 14 rings

>  <PUBCHEM_HEAVY_ATOM_COUNT>
14

>  <PUBCHEM_ATOM_DEF_STEREO_COUNT>
0

>  <PUBCHEM_ATOM_UDEF_STEREO_COUNT>
0

>  <PUBCHEM_BOND_DEF_STEREO_COUNT>
0

>  <PUBCHEM_BOND_UDEF_STEREO_COUNT>
0

>  <PUBCHEM_ISOTOPIC_ATOM_COUNT>
0

>  <PUBCHEM_COMPONENT_COUNT>
1

>  <PUBCHEM_CACTVS_TAUTO_COUNT>
2

>  <PUBCHEM_CONFORMER_ID>
000165C500000001

>  <PUBCHEM_MMFF94_ENERGY>
42.8649

>  <PUBCHEM_FEATURE_SELFOVERLAP>
15.223

>  <PUBCHEM_SHAPE_FINGERPRINT>
11401426 45 18411695504249752072
11471102 20 18334855021777706302
12236239 1 18410855460143986065
12251169 10 18410855460133436599
13221675 6 18410857663457077059
13380535 76 18411140233687728767
13581323 91 18060415798519425383
13690532 89 18409729534662576947
14144814 61 18410855434368907642
14325111 11 18410856551060547401
15196674 1 18338797930625519607
15442244 35 18194683661841593698
15536298 74 18342175570622654720
15775835 57 18410859858174724873
16945 1 18410855460128161798
17802600 8 18410852161635918213
18186145 218 17822002146707077631
18522853 276 18341894095182025880
200 152 18341889697536168493
20510252 161 17988647329117047457
20645477 70 18262514788758962739
21119208 17 18410575093263563045
21267235 1 18410583876466635943
2255824 54 18041000657072957242
23402539 116 18060412513376086789
23402655 69 18408600331878580085
23463225 33 18410293583953572294
23557571 272 17560808697026486272
23559900 14 18272367624604330000
26918003 58 18040155132420103851
3312278 4 18410294743890362283
3545911 37 18410575088958065718
42 15 18334014990794290371
474 4 17823142396411308588
5104073 3 18338516446974479267
57096353 35 18338517567945112420
69090 78 18342454846486686039
7364860 26 18344145895412163042
9709674 26 18413113865633898639
9981440 41 17399796493866239016

>  <PUBCHEM_SHAPE_MULTIPOLES>
284.11
8.73
1.4
0.67
1.55
0
0
0
0
-0.08
0
0.04
0
-0.45

>  <PUBCHEM_SHAPE_SELFOVERLAP>
610.292

>  <PUBCHEM_SHAPE_VOLUME>
158.6

>  <PUBCHEM_COORDINATE_TYPE>
2
5
10

>  <Energy>
27.0852

$$$$
