89594
 OpenBabel07292612043D

 27 28  0  0  1  0  0  0  0  0999 V2000
   -1.7237   -0.8006   -0.0431 N   0  3  1  0  0  0  0  0  0  0  0  0
    2.3244   -0.6784    1.2313 N   0  0  0  0  0  0  0  0  0  0  0  0
   -0.8905    0.2964   -0.5704 C   0  0  1  0  0  0  0  0  0  0  0  0
   -1.4876    1.5707    0.0497 C   0  0  0  0  0  0  0  0  0  0  0  0
   -2.6875    1.0964    0.8576 C   0  0  0  0  0  0  0  0  0  0  0  0
   -3.0434   -0.2336    0.2243 C   0  0  0  0  0  0  0  0  0  0  0  0
    0.5759    0.1437   -0.2459 C   0  0  0  0  0  0  0  0  0  0  0  0
   -1.7792   -1.9543   -0.9302 C   0  0  0  0  0  0  0  0  0  0  0  0
    1.5560    0.6975   -1.0783 C   0  0  0  0  0  0  0  0  0  0  0  0
    1.0210   -0.5193    0.8954 C   0  0  0  0  0  0  0  0  0  0  0  0
    2.9035    0.5494   -0.7591 C   0  0  0  0  0  0  0  0  0  0  0  0
    3.2333   -0.1442    0.3920 C   0  0  0  0  0  0  0  0  0  0  0  0
   -1.3123   -1.1718    0.8132 H   0  0  0  0  0  0  0  0  0  0  0  0
   -0.9105    0.3142   -1.6400 H   0  0  0  0  0  0  0  0  0  0  0  0
   -1.7961    2.2516   -0.7159 H   0  0  0  0  0  0  0  0  0  0  0  0
   -0.7768    2.0912    0.6570 H   0  0  0  0  0  0  0  0  0  0  0  0
   -3.5001    1.7877    0.7758 H   0  0  0  0  0  0  0  0  0  0  0  0
   -2.4772    1.0147    1.9036 H   0  0  0  0  0  0  0  0  0  0  0  0
   -3.6024   -0.8487    0.8981 H   0  0  0  0  0  0  0  0  0  0  0  0
   -3.6620   -0.1478   -0.6446 H   0  0  0  0  0  0  0  0  0  0  0  0
   -2.2024   -1.6626   -1.8686 H   0  0  0  0  0  0  0  0  0  0  0  0
   -2.3857   -2.7163   -0.4869 H   0  0  0  0  0  0  0  0  0  0  0  0
   -0.7903   -2.3318   -1.0867 H   0  0  0  0  0  0  0  0  0  0  0  0
    1.2802    1.2149   -1.9276 H   0  0  0  0  0  0  0  0  0  0  0  0
    0.3095   -0.9166    1.5287 H   0  0  0  0  0  0  0  0  0  0  0  0
    3.6376    0.9470   -1.3658 H   0  0  0  0  0  0  0  0  0  0  0  0
    4.2331   -0.2590    0.6210 H   0  0  0  0  0  0  0  0  0  0  0  0
  1  3  1  0  0  0  0
  1  6  1  0  0  0  0
  1  8  1  0  0  0  0
  1 13  1  1  0  0  0
  2 10  1  0  0  0  0
  2 12  2  0  0  0  0
  3  4  1  0  0  0  0
  3  7  1  0  0  0  0
  3 14  1  6  0  0  0
  4  5  1  0  0  0  0
  4 15  1  0  0  0  0
  4 16  1  0  0  0  0
  5  6  1  0  0  0  0
  5 17  1  0  0  0  0
  5 18  1  0  0  0  0
  6 19  1  0  0  0  0
  6 20  1  0  0  0  0
  7  9  1  0  0  0  0
  7 10  2  0  0  0  0
  8 21  1  0  0  0  0
  8 22  1  0  0  0  0
  8 23  1  0  0  0  0
  9 11  2  0  0  0  0
  9 24  1  0  0  0  0
 10 25  1  0  0  0  0
 11 12  1  0  0  0  0
 11 26  1  0  0  0  0
 12 27  1  0  0  0  0
M  CHG  1   1   1
M  END
>  <PUBCHEM_COMPOUND_CID>
89594

>  <PUBCHEM_CONFORMER_RMSD>
0.6

>  <PUBCHEM_CONFORMER_DIVERSEORDER>
3
8
5
2
1
4
6
7

>  <PUBCHEM_MMFF94_PARTIAL_CHARGES>
14
1 -0.81
10 0.16
11 -0.15
12 0.16
2 -0.62
23 0.15
24 0.15
25 0.15
26 0.15
3 0.41
6 0.27
7 -0.14
8 0.27
9 -0.15

>  <PUBCHEM_EFFECTIVE_ROTOR_COUNT>
2

>  <PUBCHEM_PHARMACOPHORE_FEATURES>
4
1 1 cation
1 2 acceptor
5 1 3 4 5 6 rings
6 2 7 9 10 11 12 rings

>  <PUBCHEM_HEAVY_ATOM_COUNT>
12

>  <PUBCHEM_ATOM_DEF_STEREO_COUNT>
1

>  <PUBCHEM_ATOM_UDEF_STEREO_COUNT>
0

>  <PUBCHEM_BOND_DEF_STEREO_COUNT>
0

>  <PUBCHEM_BOND_UDEF_STEREO_COUNT>
0

>  <PUBCHEM_ISOTOPIC_ATOM_COUNT>
0

>  <PUBCHEM_COMPONENT_COUNT>
1

>  <PUBCHEM_CACTVS_TAUTO_COUNT>
1

>  <PUBCHEM_CONFORMER_ID>
00015DFA00000003

>  <PUBCHEM_MMFF94_ENERGY>
28.7208

>  <PUBCHEM_FEATURE_SELFOVERLAP>
20.297

>  <PUBCHEM_SHAPE_FINGERPRINT>
10857977 72 17775003526630995877
11031198 65 15195570112767051744
124424 183 16630243602600998766
12716758 59 17917438587693076950
12932764 1 18260546727622590676
13024252 1 16226046682879912029
13538477 17 18408885174204472783
13581323 91 18343582940815744751
14144814 61 18408043996021716112
15669948 3 18342177807847078535
15775835 57 18335709325059071392
16945 1 18272369771797619637
17844478 74 16200440186260247257
19422 9 18261119568669312802
20645464 45 17275099513985106371
20871998 184 18059580243045283455
21061003 4 15791740684565994036
21930827 45 17775288257134836167
22445834 79 18114461171538339858
23236772 104 18187931711079941641
23402539 116 17917418822849705989
23552423 10 18046347710651554349
2748010 2 17832141619578997365
276578 36 17986406502870703379
3248919 1 18131066030632652660
369184 2 17385724686165187853
63268167 104 17603863420775935508
77492 1 18260548934961214197
8030462 33 18186801408873701612

>  <PUBCHEM_SHAPE_MULTIPOLES>
236.99
5.05
1.44
1.11
1.12
0.29
-0.05
-0.19
-0.59
-1.11
0.21
0.41
0.08
-0.79

>  <PUBCHEM_SHAPE_SELFOVERLAP>
494.786

>  <PUBCHEM_SHAPE_VOLUME>
134.9

>  <PUBCHEM_COORDINATE_TYPE>
2
5
10

>  <Energy>
25.8254

$$$$
