4211
 OpenBabel06182610193D

 28 29  0  0  1  0  0  0  0  0999 V2000
    0.5080   -3.5622    0.0754 Cl  0  0  0  0  0  0  0  0  0  0  0  0
   -2.2823   -2.8711    0.3679 Cl  0  0  0  0  0  0  0  0  0  0  0  0
   -2.4446   -0.0850   -2.4892 Cl  0  0  0  0  0  0  0  0  0  0  0  0
    5.2113    1.4476    0.0082 Cl  0  0  0  0  0  0  0  0  0  0  0  0
   -0.3613   -0.9443   -0.2585 C   0  0  2  0  0  0  0  0  0  0  0  0
    1.0589   -0.3607   -0.1539 C   0  0  0  0  0  0  0  0  0  0  0  0
   -1.4016    0.1419    0.0522 C   0  0  0  0  0  0  0  0  0  0  0  0
   -0.6109   -2.2427    0.5632 C   0  0  0  0  0  0  0  0  0  0  0  0
    1.5671    0.3798   -1.2382 C   0  0  0  0  0  0  0  0  0  0  0  0
    1.8625   -0.5014    0.9902 C   0  0  0  0  0  0  0  0  0  0  0  0
   -2.3587    0.5657   -0.8898 C   0  0  0  0  0  0  0  0  0  0  0  0
   -1.4238    0.7418    1.3287 C   0  0  0  0  0  0  0  0  0  0  0  0
    2.8468    0.9390   -1.1891 C   0  0  0  0  0  0  0  0  0  0  0  0
    3.1445    0.0559    1.0375 C   0  0  0  0  0  0  0  0  0  0  0  0
   -3.2993    1.5484   -0.5602 C   0  0  0  0  0  0  0  0  0  0  0  0
   -2.3613    1.7256    1.6498 C   0  0  0  0  0  0  0  0  0  0  0  0
    3.6318    0.7698   -0.0532 C   0  0  0  0  0  0  0  0  0  0  0  0
   -3.3005    2.1277    0.7060 C   0  0  0  0  0  0  0  0  0  0  0  0
   -0.4695   -1.2653   -1.2734 H   0  0  0  0  0  0  0  0  0  0  0  0
   -0.4451   -1.9622    1.5824 H   0  0  0  0  0  0  0  0  0  0  0  0
    0.9864    0.5115   -2.0810 H   0  0  0  0  0  0  0  0  0  0  0  0
    1.5025   -1.0222    1.8052 H   0  0  0  0  0  0  0  0  0  0  0  0
   -0.7345    0.4482    2.0384 H   0  0  0  0  0  0  0  0  0  0  0  0
    3.2083    1.4757   -1.9930 H   0  0  0  0  0  0  0  0  0  0  0  0
    3.7283   -0.0622    1.8802 H   0  0  0  0  0  0  0  0  0  0  0  0
   -3.9968    1.8456   -1.2603 H   0  0  0  0  0  0  0  0  0  0  0  0
   -2.3573    2.1547    2.5884 H   0  0  0  0  0  0  0  0  0  0  0  0
   -3.9955    2.8527    0.9433 H   0  0  0  0  0  0  0  0  0  0  0  0
  1  8  1  0  0  0  0
  2  8  1  0  0  0  0
  3 11  1  0  0  0  0
  4 17  1  0  0  0  0
  5  6  1  0  0  0  0
  5  7  1  0  0  0  0
  5  8  1  0  0  0  0
  5 19  1  6  0  0  0
  6  9  2  0  0  0  0
  6 10  1  0  0  0  0
  7 11  1  0  0  0  0
  7 12  2  0  0  0  0
  8 20  1  0  0  0  0
  9 13  1  0  0  0  0
  9 21  1  0  0  0  0
 10 14  2  0  0  0  0
 10 22  1  0  0  0  0
 11 15  2  0  0  0  0
 12 16  1  0  0  0  0
 12 23  1  0  0  0  0
 13 17  2  0  0  0  0
 13 24  1  0  0  0  0
 14 17  1  0  0  0  0
 14 25  1  0  0  0  0
 15 18  1  0  0  0  0
 15 26  1  0  0  0  0
 16 18  2  0  0  0  0
 16 27  1  0  0  0  0
 18 28  1  0  0  0  0
M  END
>  <PUBCHEM_COMPOUND_CID>
4211

>  <PUBCHEM_CONFORMER_RMSD>
0.6

>  <PUBCHEM_CONFORMER_DIVERSEORDER>
1
5
8
7
4
2
10
3
9
6

>  <PUBCHEM_MMFF94_PARTIAL_CHARGES>
26
1 -0.29
10 -0.15
11 0.18
12 -0.15
13 -0.15
14 -0.15
15 -0.15
16 -0.15
17 0.18
18 -0.15
2 -0.29
21 0.15
22 0.15
23 0.15
24 0.15
25 0.15
26 0.15
27 0.15
28 0.15
3 -0.18
4 -0.18
5 0.29
6 -0.14
7 -0.14
8 0.58
9 -0.15

>  <PUBCHEM_EFFECTIVE_ROTOR_COUNT>
3

>  <PUBCHEM_PHARMACOPHORE_FEATURES>
2
6 6 9 10 13 14 17 rings
6 7 11 12 15 16 18 rings

>  <PUBCHEM_HEAVY_ATOM_COUNT>
18

>  <PUBCHEM_ATOM_DEF_STEREO_COUNT>
0

>  <PUBCHEM_ATOM_UDEF_STEREO_COUNT>
1

>  <PUBCHEM_BOND_DEF_STEREO_COUNT>
0

>  <PUBCHEM_BOND_UDEF_STEREO_COUNT>
0

>  <PUBCHEM_ISOTOPIC_ATOM_COUNT>
0

>  <PUBCHEM_COMPONENT_COUNT>
1

>  <PUBCHEM_CACTVS_TAUTO_COUNT>
1

>  <PUBCHEM_CONFORMER_ID>
0000107300000001

>  <PUBCHEM_MMFF94_ENERGY>
53.0115

>  <PUBCHEM_FEATURE_SELFOVERLAP>
10.149

>  <PUBCHEM_SHAPE_FINGERPRINT>
11578080 2 13240265751478944795
11640471 11 18127965317695698057
121448 382 18272362105091183114
12173636 292 18411706503624119380
12633257 1 15719689679082322741
12788726 201 18048895278787266590
13140716 1 18335144129159845714
13583140 156 17703497905348682930
13675066 3 16660359282231873988
13764800 53 18271538558160412803
14142880 1 18334013921490034125
14787075 74 18201154447212327129
15309172 13 18187368692317379117
15342168 16 18262523589463346661
15490181 8 18338230458124874331
15534591 1 18202285771098375021
15775835 57 18200309914180408745
16752209 62 18264761237106694234
16945 1 17274810334048180249
1741750 31 18410577305604334768
18186145 218 18268436741295485364
18981168 100 18266762227941285159
19765921 60 18200871760627571257
204376 136 18335986393409736512
20510252 161 18268715089530898754
20671657 1 18122634859338327222
20871999 31 16558738006503414173
21339142 149 18202281428844318805
21339142 36 18055346100965450383
21524375 3 18129665183946434265
21731228 192 18187374211455719858
2255824 54 17908707232998160843
22907989 373 18195811992594424806
2306618 200 18114176505559105831
23184049 59 17968933064129585866
23402539 116 18200590427131599790
23419403 2 17693640924970137903
23557571 272 18127417963068922980
23558518 356 18261119598893002322
23559900 14 18201165378268020870
283562 15 18191303994952893114
305870 269 18267307521278566152
4340502 62 18336552599924203817
474 4 18267862791867385504
59755656 520 18410862044418684086
633830 44 18271527485951053468
6992083 37 17967533510344549068
7364860 26 17981045206569103803
81228 2 18048617085197283619
84936 182 18055630616478313512
9981440 41 17917415567269939298

>  <PUBCHEM_SHAPE_MULTIPOLES>
377.91
6.9
2.93
1.62
7.38
3.02
0.58
-4.99
0.17
-1.83
-0.72
-0.99
-0.43
-0.59

>  <PUBCHEM_SHAPE_SELFOVERLAP>
769.69

>  <PUBCHEM_SHAPE_VOLUME>
211.9

>  <PUBCHEM_COORDINATE_TYPE>
2
5
10

>  <Energy>
70.2253

$$$$
