31242
 OpenBabel06182610193D

 19 19  0  0  0  0  0  0  0  0999 V2000
   -3.1458    0.0301    0.2845 O   0  0  0  0  0  0  0  0  0  0  0  0
    0.9690   -0.0026   -0.3045 C   0  0  0  0  0  0  0  0  0  0  0  0
    2.4631    0.0014   -0.5041 C   0  0  0  0  0  0  0  0  0  0  0  0
    0.2692   -1.2132   -0.1976 C   0  0  0  0  0  0  0  0  0  0  0  0
    0.2632    1.2037   -0.1974 C   0  0  0  0  0  0  0  0  0  0  0  0
    3.2125    0.0008    0.8196 C   0  0  0  0  0  0  0  0  0  0  0  0
   -1.1139   -1.2189   -0.0008 C   0  0  0  0  0  0  0  0  0  0  0  0
   -1.1185    1.1985   -0.0007 C   0  0  0  0  0  0  0  0  0  0  0  0
   -1.7960   -0.0106    0.0942 C   0  0  0  0  0  0  0  0  0  0  0  0
   -3.6335   -0.7670    0.3528 H   0  0  0  0  0  0  0  0  0  0  0  0
    2.7361    0.8767   -1.0556 H   0  0  0  0  0  0  0  0  0  0  0  0
    2.7289   -0.8883   -1.0358 H   0  0  0  0  0  0  0  0  0  0  0  0
    0.7801   -2.1073   -0.2648 H   0  0  0  0  0  0  0  0  0  0  0  0
    0.7683    2.1012   -0.2645 H   0  0  0  0  0  0  0  0  0  0  0  0
    2.9627    0.8830    1.3712 H   0  0  0  0  0  0  0  0  0  0  0  0
    4.2660   -0.0169    0.6330 H   0  0  0  0  0  0  0  0  0  0  0  0
    2.9359   -0.8640    1.3856 H   0  0  0  0  0  0  0  0  0  0  0  0
   -1.6252   -2.1123    0.0733 H   0  0  0  0  0  0  0  0  0  0  0  0
   -1.6346    2.0890    0.0740 H   0  0  0  0  0  0  0  0  0  0  0  0
  1  9  1  0  0  0  0
  1 10  1  0  0  0  0
  2  3  1  0  0  0  0
  2  4  2  0  0  0  0
  2  5  1  0  0  0  0
  3  6  1  0  0  0  0
  3 11  1  0  0  0  0
  3 12  1  0  0  0  0
  4  7  1  0  0  0  0
  4 13  1  0  0  0  0
  5  8  2  0  0  0  0
  5 14  1  0  0  0  0
  6 15  1  0  0  0  0
  6 16  1  0  0  0  0
  6 17  1  0  0  0  0
  7  9  2  0  0  0  0
  7 18  1  0  0  0  0
  8  9  1  0  0  0  0
  8 19  1  0  0  0  0
M  END
>  <PUBCHEM_COMPOUND_CID>
31242

>  <PUBCHEM_CONFORMER_RMSD>
0.4

>  <PUBCHEM_CONFORMER_DIVERSEORDER>
1
2

>  <PUBCHEM_MMFF94_PARTIAL_CHARGES>
13
1 -0.53
12 0.15
13 0.15
17 0.15
18 0.15
19 0.45
2 -0.14
3 0.14
4 -0.15
5 -0.15
7 -0.15
8 -0.15
9 0.08

>  <PUBCHEM_EFFECTIVE_ROTOR_COUNT>
1

>  <PUBCHEM_PHARMACOPHORE_FEATURES>
3
1 1 donor
1 6 hydrophobe
6 2 4 5 7 8 9 rings

>  <PUBCHEM_HEAVY_ATOM_COUNT>
9

>  <PUBCHEM_ATOM_DEF_STEREO_COUNT>
0

>  <PUBCHEM_ATOM_UDEF_STEREO_COUNT>
0

>  <PUBCHEM_BOND_DEF_STEREO_COUNT>
0

>  <PUBCHEM_BOND_UDEF_STEREO_COUNT>
0

>  <PUBCHEM_ISOTOPIC_ATOM_COUNT>
0

>  <PUBCHEM_COMPONENT_COUNT>
1

>  <PUBCHEM_CACTVS_TAUTO_COUNT>
2

>  <PUBCHEM_CONFORMER_ID>
00007A0A00000001

>  <PUBCHEM_MMFF94_ENERGY>
17.5189

>  <PUBCHEM_FEATURE_SELFOVERLAP>
15.223

>  <PUBCHEM_SHAPE_FINGERPRINT>
10857977 72 18411978083043588008
14325111 11 18411420579187890604
15310529 11 16660363701109344684
16945 1 18410579482751788167
20645464 45 17917705812500984442
20871998 184 18129946817858430462
21040471 1 18339088077083191756
23235685 24 18412262826448193285
23402655 69 18195511607821488205
23552423 10 17826800540089152916
2748010 2 18050013194565755159
29004967 10 18334306356911859249
369184 2 18341040870116845578
5084963 1 18270410390600527828

>  <PUBCHEM_SHAPE_MULTIPOLES>
179.35
4.05
1.28
0.74
1.09
0
0.03
0
0.87
-0.32
-0.06
0.31
0
0

>  <PUBCHEM_SHAPE_SELFOVERLAP>
366.397

>  <PUBCHEM_SHAPE_VOLUME>
105

>  <PUBCHEM_COORDINATE_TYPE>
2
5
10

>  <Energy>
7.4331

$$$$
