247304
 OpenBabel07292612043D

 45 48  0  0  1  0  0  0  0  0999 V2000
    5.2077    1.3572    0.2734 O   0  0  0  0  0  0  0  0  0  0  0  0
   -4.6447    2.1349   -0.1260 O   0  0  0  0  0  0  0  0  0  0  0  0
   -5.6166   -0.3451    0.4673 O   0  0  0  0  0  0  0  0  0  0  0  0
    2.8524    0.6406    0.1531 C   0  0  1  0  0  0  0  0  0  0  0  0
    2.2514   -0.6714   -0.3904 C   0  0  2  0  0  0  0  0  0  0  0  0
    0.7923   -0.8544    0.0281 C   0  0  1  0  0  0  0  0  0  0  0  0
   -0.0454    0.3199   -0.5619 C   0  0  2  0  0  0  0  0  0  0  0  0
    4.2939    0.4901   -0.3692 C   0  0  2  0  0  0  0  0  0  0  0  0
    2.0675    1.8113   -0.4500 C   0  0  0  0  0  0  0  0  0  0  0  0
    3.2813   -1.7246    0.0082 C   0  0  0  0  0  0  0  0  0  0  0  0
    0.5579    1.6948   -0.1663 C   0  0  0  0  0  0  0  0  0  0  0  0
    4.6302   -0.9915   -0.1111 C   0  0  0  0  0  0  0  0  0  0  0  0
    0.2021   -2.1796   -0.4577 C   0  0  0  0  0  0  0  0  0  0  0  0
    2.8501    0.7661    1.6985 C   0  0  0  0  0  0  0  0  0  0  0  0
   -1.5321    0.1532   -0.2512 C   0  0  0  0  0  0  0  0  0  0  0  0
   -1.2022   -2.3621    0.1116 C   0  0  0  0  0  0  0  0  0  0  0  0
   -2.0685   -1.1281    0.0209 C   0  0  0  0  0  0  0  0  0  0  0  0
   -2.4141    1.2490   -0.3186 C   0  0  0  0  0  0  0  0  0  0  0  0
   -3.4453   -1.2770    0.2726 C   0  0  0  0  0  0  0  0  0  0  0  0
   -3.7742    1.0806   -0.0753 C   0  0  0  0  0  0  0  0  0  0  0  0
   -4.2837   -0.1761    0.2231 C   0  0  0  0  0  0  0  0  0  0  0  0
    4.9645    2.2778    0.0885 H   0  0  0  0  0  0  0  0  0  0  0  0
   -4.3286    2.9942   -0.3251 H   0  0  0  0  0  0  0  0  0  0  0  0
   -5.9518   -1.1968    0.6679 H   0  0  0  0  0  0  0  0  0  0  0  0
    2.1196   -0.7204   -1.4512 H   0  0  0  0  0  0  0  0  0  0  0  0
    0.7581   -0.8622    1.0976 H   0  0  0  0  0  0  0  0  0  0  0  0
    0.0146    0.2907   -1.6298 H   0  0  0  0  0  0  0  0  0  0  0  0
    4.3706    0.7594   -1.4020 H   0  0  0  0  0  0  0  0  0  0  0  0
    2.2210    1.8222   -1.5089 H   0  0  0  0  0  0  0  0  0  0  0  0
    2.4215    2.7156   -0.0007 H   0  0  0  0  0  0  0  0  0  0  0  0
    3.2442   -2.5631   -0.6555 H   0  0  0  0  0  0  0  0  0  0  0  0
    3.1110   -2.1161    0.9894 H   0  0  0  0  0  0  0  0  0  0  0  0
    0.3981    1.8455    0.8809 H   0  0  0  0  0  0  0  0  0  0  0  0
    0.0686    2.4355   -0.7637 H   0  0  0  0  0  0  0  0  0  0  0  0
    5.1886   -1.0924    0.7960 H   0  0  0  0  0  0  0  0  0  0  0  0
    5.2265   -1.3989   -0.9007 H   0  0  0  0  0  0  0  0  0  0  0  0
    0.8248   -2.9862   -0.1316 H   0  0  0  0  0  0  0  0  0  0  0  0
    0.1508   -2.1718   -1.5265 H   0  0  0  0  0  0  0  0  0  0  0  0
    3.3971   -0.0495    2.1234 H   0  0  0  0  0  0  0  0  0  0  0  0
    1.8420    0.7444    2.0566 H   0  0  0  0  0  0  0  0  0  0  0  0
    3.3095    1.6899    1.9820 H   0  0  0  0  0  0  0  0  0  0  0  0
   -1.1142   -2.6362    1.1421 H   0  0  0  0  0  0  0  0  0  0  0  0
   -1.6785   -3.1180   -0.4773 H   0  0  0  0  0  0  0  0  0  0  0  0
   -2.0485    2.1858   -0.5504 H   0  0  0  0  0  0  0  0  0  0  0  0
   -3.8307   -2.2083    0.4943 H   0  0  0  0  0  0  0  0  0  0  0  0
  1  8  1  0  0  0  0
  1 22  1  0  0  0  0
  2 20  1  0  0  0  0
  2 23  1  0  0  0  0
  3 21  1  0  0  0  0
  3 24  1  0  0  0  0
  4  5  1  0  0  0  0
  4  8  1  0  0  0  0
  4  9  1  0  0  0  0
  4 14  1  1  0  0  0
  5  6  1  0  0  0  0
  5 10  1  0  0  0  0
  5 25  1  6  0  0  0
  6  7  1  0  0  0  0
  6 13  1  0  0  0  0
  6 26  1  1  0  0  0
  7 11  1  0  0  0  0
  7 15  1  0  0  0  0
  7 27  1  6  0  0  0
  8 12  1  0  0  0  0
  8 28  1  6  0  0  0
  9 11  1  0  0  0  0
  9 29  1  0  0  0  0
  9 30  1  0  0  0  0
 10 12  1  0  0  0  0
 10 31  1  0  0  0  0
 10 32  1  0  0  0  0
 11 33  1  0  0  0  0
 11 34  1  0  0  0  0
 12 35  1  0  0  0  0
 12 36  1  0  0  0  0
 13 16  1  0  0  0  0
 13 37  1  0  0  0  0
 13 38  1  0  0  0  0
 14 39  1  0  0  0  0
 14 40  1  0  0  0  0
 14 41  1  0  0  0  0
 15 17  1  0  0  0  0
 15 18  2  0  0  0  0
 16 17  1  0  0  0  0
 16 42  1  0  0  0  0
 16 43  1  0  0  0  0
 17 19  2  0  0  0  0
 18 20  1  0  0  0  0
 18 44  1  0  0  0  0
 19 21  1  0  0  0  0
 19 45  1  0  0  0  0
 20 21  2  0  0  0  0
M  END
>  <PUBCHEM_COMPOUND_CID>
247304

>  <PUBCHEM_CONFORMER_RMSD>
0.6

>  <PUBCHEM_CONFORMER_DIVERSEORDER>
1

>  <PUBCHEM_MMFF94_PARTIAL_CHARGES>
17
1 -0.68
15 -0.14
16 0.14
17 -0.14
18 -0.15
19 -0.15
2 -0.53
20 0.08
21 0.08
3 -0.53
41 0.4
42 0.15
43 0.15
44 0.45
45 0.45
7 0.14
8 0.28

>  <PUBCHEM_EFFECTIVE_ROTOR_COUNT>
1.4

>  <PUBCHEM_PHARMACOPHORE_FEATURES>
8
1 1 acceptor
1 1 donor
1 2 donor
1 3 donor
5 4 5 8 10 12 rings
6 15 17 18 19 20 21 rings
6 4 5 6 7 9 11 rings
6 6 7 13 15 16 17 rings

>  <PUBCHEM_HEAVY_ATOM_COUNT>
21

>  <PUBCHEM_ATOM_DEF_STEREO_COUNT>
5

>  <PUBCHEM_ATOM_UDEF_STEREO_COUNT>
0

>  <PUBCHEM_BOND_DEF_STEREO_COUNT>
0

>  <PUBCHEM_BOND_UDEF_STEREO_COUNT>
0

>  <PUBCHEM_ISOTOPIC_ATOM_COUNT>
0

>  <PUBCHEM_COMPONENT_COUNT>
1

>  <PUBCHEM_CACTVS_TAUTO_COUNT>
31

>  <PUBCHEM_CONFORMER_ID>
0003C60800000001

>  <PUBCHEM_MMFF94_ENERGY>
70.687

>  <PUBCHEM_FEATURE_SELFOVERLAP>
40.699

>  <PUBCHEM_SHAPE_FINGERPRINT>
10 15 18263358248107294288
10411042 1 17113818488816923687
10616163 171 18266181810482647094
10646746 165 18411420600604639903
10967382 1 18410293575537866982
11132069 177 18408600366148407111
12011746 2 18412268320038529726
12107183 9 17832423094603116137
12236239 1 17458062676889730165
12251169 10 18335138730100481167
12390115 104 18270979950730592561
12403259 226 18269270330592874089
12403259 415 18343016692501792985
12403260 363 18410853291781581245
12403814 3 17530677723444325309
12500047 106 18343015635950121130
12507560 40 18411700984580477573
12592029 89 18335141964385396459
12788726 201 17775012237083564496
13140716 1 18120373421606999688
13544592 145 18272379646386616286
13675066 3 18343300387686120337
14178342 30 18051956302575341786
14341114 176 18409738356583392867
14790565 3 18048040967676284924
14866123 147 17118897145698954682
15042514 8 18192437587816043091
15196674 1 18410012113250684447
15256400 18 18410576158536940709
15536298 74 18413671300917396294
1601671 61 18408042914154434732
16945 1 18194676197114716670
17349148 13 18413384345889255815
17804303 29 18409733966873654293
1813 80 16877946031423509028
18186145 218 17418089944509990450
192875 21 13901912240891535850
19591789 44 18265051332145863686
200 152 18059851771114716917
20510252 161 18342177739238657393
20645477 70 18130510743244084302
21033648 29 18201427086866589881
21267235 1 18409177601158130959
21279426 13 18196094348086877782
21421861 104 17823403921713095362
22854114 59 18412546513697025723
23402539 116 18343295977166131871
23558518 356 17682961355391589554
23559900 14 18340769243758867478
2748010 2 18338232669906067750
3004659 81 18261397703068990958
335352 9 18337954463483885022
34934 24 18410289246685469238
350125 39 18409735088477543725
351380 180 18409730677408798751
3545911 37 18412829105243901036
4214541 1 18409168792449102293
465052 167 17967540090165991563
495365 180 17274811485373787370
5104073 3 18408887295902376563
542803 24 17275108331563508113
59755656 215 18336264549146841303
69090 78 18341891917871146063
77779 3 18409450284378698878
7832392 63 18340483482230741486
9709674 26 18410580620939876759

>  <PUBCHEM_SHAPE_MULTIPOLES>
414.56
10.17
2.26
0.83
2.78
0.33
0.22
-2.04
1.08
0.26
-0.14
-0.41
-0.11
0.43

>  <PUBCHEM_SHAPE_SELFOVERLAP>
905.423

>  <PUBCHEM_SHAPE_VOLUME>
224.6

>  <PUBCHEM_COORDINATE_TYPE>
2
5
10

>  <Energy>
57.2346

$$$$
