6643
 OpenBabel06182610193D

 28 28  0  0  0  0  0  0  0  0999 V2000
    3.9121    0.1572   -0.1746 O   0  0  0  0  0  0  0  0  0  0  0  0
   -1.7685   -0.3027    0.2856 C   0  0  0  0  0  0  0  0  0  0  0  0
   -2.4620    1.0342   -0.1181 C   0  0  0  0  0  0  0  0  0  0  0  0
   -0.2387   -0.1909    0.1574 C   0  0  0  0  0  0  0  0  0  0  0  0
   -2.1140   -0.6043    1.7656 C   0  0  0  0  0  0  0  0  0  0  0  0
   -2.3791   -1.4560   -0.5465 C   0  0  0  0  0  0  0  0  0  0  0  0
   -2.1705    1.5157   -1.5375 C   0  0  0  0  0  0  0  0  0  0  0  0
    0.4629    0.7925    0.8849 C   0  0  0  0  0  0  0  0  0  0  0  0
    0.5125   -1.0382   -0.6755 C   0  0  0  0  0  0  0  0  0  0  0  0
    1.8519    0.9227    0.7862 C   0  0  0  0  0  0  0  0  0  0  0  0
    1.9003   -0.9094   -0.7768 C   0  0  0  0  0  0  0  0  0  0  0  0
    2.5590    0.0673   -0.0464 C   0  0  0  0  0  0  0  0  0  0  0  0
    4.3861    0.8070    0.3060 H   0  0  0  0  0  0  0  0  0  0  0  0
   -2.1376    1.7938    0.5621 H   0  0  0  0  0  0  0  0  0  0  0  0
   -3.5146    0.8461   -0.0790 H   0  0  0  0  0  0  0  0  0  0  0  0
   -1.7131    0.1668    2.3898 H   0  0  0  0  0  0  0  0  0  0  0  0
   -1.6907   -1.5462    2.0460 H   0  0  0  0  0  0  0  0  0  0  0  0
   -3.1769   -0.6419    1.8833 H   0  0  0  0  0  0  0  0  0  0  0  0
   -2.1692   -1.2974   -1.5837 H   0  0  0  0  0  0  0  0  0  0  0  0
   -3.4383   -1.4817   -0.3970 H   0  0  0  0  0  0  0  0  0  0  0  0
   -1.9521   -2.3860   -0.2343 H   0  0  0  0  0  0  0  0  0  0  0  0
   -1.1251    1.7210   -1.6368 H   0  0  0  0  0  0  0  0  0  0  0  0
   -2.7292    2.4069   -1.7336 H   0  0  0  0  0  0  0  0  0  0  0  0
   -2.4529    0.7566   -2.2367 H   0  0  0  0  0  0  0  0  0  0  0  0
   -0.0606    1.4307    1.5043 H   0  0  0  0  0  0  0  0  0  0  0  0
    0.0303   -1.7687   -1.2221 H   0  0  0  0  0  0  0  0  0  0  0  0
    2.3466    1.6487    1.3279 H   0  0  0  0  0  0  0  0  0  0  0  0
    2.4340   -1.5406   -1.3946 H   0  0  0  0  0  0  0  0  0  0  0  0
  1 12  1  0  0  0  0
  1 13  1  0  0  0  0
  2  3  1  0  0  0  0
  2  4  1  0  0  0  0
  2  5  1  0  0  0  0
  2  6  1  0  0  0  0
  3  7  1  0  0  0  0
  3 14  1  0  0  0  0
  3 15  1  0  0  0  0
  4  8  2  0  0  0  0
  4  9  1  0  0  0  0
  5 16  1  0  0  0  0
  5 17  1  0  0  0  0
  5 18  1  0  0  0  0
  6 19  1  0  0  0  0
  6 20  1  0  0  0  0
  6 21  1  0  0  0  0
  7 22  1  0  0  0  0
  7 23  1  0  0  0  0
  7 24  1  0  0  0  0
  8 10  1  0  0  0  0
  8 25  1  0  0  0  0
  9 11  2  0  0  0  0
  9 26  1  0  0  0  0
 10 12  2  0  0  0  0
 10 27  1  0  0  0  0
 11 12  1  0  0  0  0
 11 28  1  0  0  0  0
M  END
>  <PUBCHEM_COMPOUND_CID>
6643

>  <PUBCHEM_CONFORMER_RMSD>
0.6

>  <PUBCHEM_CONFORMER_DIVERSEORDER>
1
3
2
4

>  <PUBCHEM_MMFF94_PARTIAL_CHARGES>
13
1 -0.53
10 -0.15
11 -0.15
12 0.08
2 0.14
24 0.15
25 0.15
26 0.15
27 0.15
28 0.45
4 -0.14
8 -0.15
9 -0.15

>  <PUBCHEM_EFFECTIVE_ROTOR_COUNT>
2

>  <PUBCHEM_PHARMACOPHORE_FEATURES>
4
1 1 donor
1 7 hydrophobe
3 2 5 6 hydrophobe
6 4 8 9 10 11 12 rings

>  <PUBCHEM_HEAVY_ATOM_COUNT>
12

>  <PUBCHEM_ATOM_DEF_STEREO_COUNT>
0

>  <PUBCHEM_ATOM_UDEF_STEREO_COUNT>
0

>  <PUBCHEM_BOND_DEF_STEREO_COUNT>
0

>  <PUBCHEM_BOND_UDEF_STEREO_COUNT>
0

>  <PUBCHEM_ISOTOPIC_ATOM_COUNT>
0

>  <PUBCHEM_COMPONENT_COUNT>
1

>  <PUBCHEM_CACTVS_TAUTO_COUNT>
2

>  <PUBCHEM_CONFORMER_ID>
000019F300000001

>  <PUBCHEM_MMFF94_ENERGY>
38.1439

>  <PUBCHEM_FEATURE_SELFOVERLAP>
20.298

>  <PUBCHEM_SHAPE_FINGERPRINT>
12138202 97 18263349335516885263
124424 183 18263352625625364034
12716758 59 17750238010620356115
12932764 1 18409732867604775490
13024252 1 17022902363380398139
13839132 238 17823972338495096381
15775835 57 18413109450475615767
16945 1 17989492887770527338
17844478 74 18336281114302789563
18534176 82 18259701198885681621
19837323 101 17604151419997827321
200 152 16917058997466323511
20201158 50 18201999902159150086
21524375 3 17608352555280812829
22802520 49 18043820774990008343
23402539 116 17821721763148055871
23402655 69 17845644829882111789
25 1 18055913187040877901
2748010 2 17773304841395818472
305870 269 16662321793900578673
3248919 1 17167575003624761218
369184 2 18411139129965244035
5084963 1 18200308960623465218
528886 8 17703793595707027674
63268167 104 17775005656887321490
8030462 33 17531232980995242195

>  <PUBCHEM_SHAPE_MULTIPOLES>
241.09
4.66
1.41
1.33
2.63
0.04
0.18
0.35
-0.43
-0.75
-0.36
-0.79
0.12
0.77

>  <PUBCHEM_SHAPE_SELFOVERLAP>
492.899

>  <PUBCHEM_SHAPE_VOLUME>
141.6

>  <PUBCHEM_COORDINATE_TYPE>
2
5
10

>  <Energy>
24.7543

$$$$
