67174
 OpenBabel06182610193D

 39 40  0  0  0  0  0  0  0  0999 V2000
    4.1592   -3.0832   -0.0787 O   0  0  0  0  0  0  0  0  0  0  0  0
    2.2688   -3.7613   -1.0443 O   0  0  0  0  0  0  0  0  0  0  0  0
   -5.5232   -0.1494   -0.7323 O   0  0  0  0  0  0  0  0  0  0  0  0
    2.5997    4.3151   -0.9245 O   0  0  0  0  0  0  0  0  0  0  0  0
   -0.0088   -0.4776    0.7774 C   0  0  0  0  0  0  0  0  0  0  0  0
    0.7395   -1.6828    0.1110 C   0  0  0  0  0  0  0  0  0  0  0  0
   -1.5026   -0.4052    0.3575 C   0  0  0  0  0  0  0  0  0  0  0  0
    0.7006    0.8286    0.3550 C   0  0  0  0  0  0  0  0  0  0  0  0
   -0.0109   -0.7210    2.3143 C   0  0  0  0  0  0  0  0  0  0  0  0
    2.2342   -1.8080    0.4291 C   0  0  0  0  0  0  0  0  0  0  0  0
   -2.3138    0.6436    0.8435 C   0  0  0  0  0  0  0  0  0  0  0  0
    0.7258    1.2011   -1.0071 C   0  0  0  0  0  0  0  0  0  0  0  0
   -2.0956   -1.3398   -0.5089 C   0  0  0  0  0  0  0  0  0  0  0  0
    1.3306    1.6787    1.2795 C   0  0  0  0  0  0  0  0  0  0  0  0
    2.8377   -2.9707   -0.3120 C   0  0  0  0  0  0  0  0  0  0  0  0
   -3.6617    0.7434    0.4908 C   0  0  0  0  0  0  0  0  0  0  0  0
    1.3666    2.3709   -1.4228 C   0  0  0  0  0  0  0  0  0  0  0  0
   -3.4406   -1.2371   -0.8665 C   0  0  0  0  0  0  0  0  0  0  0  0
    1.9715    2.8468    0.8629 C   0  0  0  0  0  0  0  0  0  0  0  0
   -4.2136   -0.2023   -0.3616 C   0  0  0  0  0  0  0  0  0  0  0  0
    1.9840    3.1840   -0.4847 C   0  0  0  0  0  0  0  0  0  0  0  0
    4.5891   -2.4711    0.4857 H   0  0  0  0  0  0  0  0  0  0  0  0
   -6.0741    0.5364   -0.4097 H   0  0  0  0  0  0  0  0  0  0  0  0
    2.5970    4.5251   -1.8377 H   0  0  0  0  0  0  0  0  0  0  0  0
    0.6381   -1.5844   -0.9496 H   0  0  0  0  0  0  0  0  0  0  0  0
    0.2848   -2.5627    0.5159 H   0  0  0  0  0  0  0  0  0  0  0  0
   -0.5168   -1.6391    2.5293 H   0  0  0  0  0  0  0  0  0  0  0  0
   -0.5148    0.0867    2.8027 H   0  0  0  0  0  0  0  0  0  0  0  0
    0.9974   -0.7782    2.6677 H   0  0  0  0  0  0  0  0  0  0  0  0
    2.3584   -1.9588    1.4811 H   0  0  0  0  0  0  0  0  0  0  0  0
    2.7285   -0.9097    0.1231 H   0  0  0  0  0  0  0  0  0  0  0  0
   -1.9022    1.3510    1.4721 H   0  0  0  0  0  0  0  0  0  0  0  0
    0.2635    0.5994   -1.7066 H   0  0  0  0  0  0  0  0  0  0  0  0
   -1.5273   -2.1141   -0.8865 H   0  0  0  0  0  0  0  0  0  0  0  0
    1.3194    1.4356    2.2824 H   0  0  0  0  0  0  0  0  0  0  0  0
   -4.2415    1.5129    0.8606 H   0  0  0  0  0  0  0  0  0  0  0  0
    1.3803    2.6282   -2.4221 H   0  0  0  0  0  0  0  0  0  0  0  0
   -3.8596   -1.9304   -1.5059 H   0  0  0  0  0  0  0  0  0  0  0  0
    2.4345    3.4578    1.5538 H   0  0  0  0  0  0  0  0  0  0  0  0
  1 15  1  0  0  0  0
  1 22  1  0  0  0  0
  2 15  2  0  0  0  0
  3 20  1  0  0  0  0
  3 23  1  0  0  0  0
  4 21  1  0  0  0  0
  4 24  1  0  0  0  0
  5  6  1  0  0  0  0
  5  7  1  0  0  0  0
  5  8  1  0  0  0  0
  5  9  1  0  0  0  0
  6 10  1  0  0  0  0
  6 25  1  0  0  0  0
  6 26  1  0  0  0  0
  7 11  2  0  0  0  0
  7 13  1  0  0  0  0
  8 12  2  0  0  0  0
  8 14  1  0  0  0  0
  9 27  1  0  0  0  0
  9 28  1  0  0  0  0
  9 29  1  0  0  0  0
 10 15  1  0  0  0  0
 10 30  1  0  0  0  0
 10 31  1  0  0  0  0
 11 16  1  0  0  0  0
 11 32  1  0  0  0  0
 12 17  1  0  0  0  0
 12 33  1  0  0  0  0
 13 18  2  0  0  0  0
 13 34  1  0  0  0  0
 14 19  2  0  0  0  0
 14 35  1  0  0  0  0
 16 20  2  0  0  0  0
 16 36  1  0  0  0  0
 17 21  2  0  0  0  0
 17 37  1  0  0  0  0
 18 20  1  0  0  0  0
 18 38  1  0  0  0  0
 19 21  1  0  0  0  0
 19 39  1  0  0  0  0
M  END
>  <PUBCHEM_COMPOUND_CID>
67174

>  <PUBCHEM_CONFORMER_RMSD>
0.8

>  <PUBCHEM_CONFORMER_DIVERSEORDER>
1
7
4
3
6
5
2

>  <PUBCHEM_MMFF94_PARTIAL_CHARGES>
30
1 -0.65
10 0.06
11 -0.15
12 -0.15
13 -0.15
14 -0.15
15 0.66
16 -0.15
17 -0.15
18 -0.15
19 -0.15
2 -0.57
20 0.08
21 0.08
29 0.15
3 -0.53
30 0.15
31 0.15
32 0.15
33 0.15
34 0.15
35 0.15
36 0.15
37 0.5
38 0.45
39 0.45
4 -0.53
5 0.29
7 -0.14
8 -0.14

>  <PUBCHEM_EFFECTIVE_ROTOR_COUNT>
5

>  <PUBCHEM_PHARMACOPHORE_FEATURES>
8
1 1 acceptor
1 2 acceptor
1 3 donor
1 4 donor
1 9 hydrophobe
3 1 2 15 anion
6 7 11 13 16 18 20 rings
6 8 12 14 17 19 21 rings

>  <PUBCHEM_HEAVY_ATOM_COUNT>
21

>  <PUBCHEM_ATOM_DEF_STEREO_COUNT>
0

>  <PUBCHEM_ATOM_UDEF_STEREO_COUNT>
0

>  <PUBCHEM_BOND_DEF_STEREO_COUNT>
0

>  <PUBCHEM_BOND_UDEF_STEREO_COUNT>
0

>  <PUBCHEM_ISOTOPIC_ATOM_COUNT>
0

>  <PUBCHEM_COMPONENT_COUNT>
1

>  <PUBCHEM_CACTVS_TAUTO_COUNT>
3

>  <PUBCHEM_CONFORMER_ID>
0001066600000001

>  <PUBCHEM_MMFF94_ENERGY>
71.9217

>  <PUBCHEM_FEATURE_SELFOVERLAP>
40.652

>  <PUBCHEM_SHAPE_FINGERPRINT>
11045515 52 18120941607410664190
11101153 10 18120108195732039926
11640471 11 17247222715229004893
11833330 49 17904201425862679594
121448 382 17552923240128931785
12173636 292 17618215552122237173
12500047 106 17618226547692663036
12788726 201 17684372754691693642
13004483 165 17979349759723878446
13009979 54 17988371347498233179
13149001 5 17968394388989034795
13590594 115 18120101580733259153
13681431 1 18337679628721714538
14181834 199 18343869900370753390
14910302 57 17196302811877149382
14955137 171 17907605552680380643
15502722 9 18338237184175262283
15842332 3 17917446315072394473
15906896 17 17033311684541620290
167882 2 18263647423828133668
16945 1 18409456898522891873
17539 30 17617375083036163886
17980427 23 17560233596995491953
1813 80 18265328409044447410
18915476 22 18192450747041547811
20600515 1 17485372166417624112
20602899 9 17695083479719868280
21524375 3 17682385198234618833
2255824 54 18411701019008995670
22907989 373 17473275271085795998
23366157 5 18334569174482460619
23419403 2 17769906053370173216
23557571 272 18052258389189964990
23559900 14 18271230686763541875
23566358 27 18339083791228550375
25222932 49 14682086277125528447
283562 15 17829613855701829202
298252 57 17685206566440794848
312423 11 18272377469091125355
4017518 198 18057043726467000796
4409770 3 17255955676489382255
458136 41 18194977459163768873
46194498 28 18261941999678473631
474 4 18042676385666019137
497634 4 17200238020112311794
532947 4 18339655541901913588
57262259 84 17763745395109254838
6443956 14 18410852123270999132
6992083 37 17840602400483642201
7364860 26 18341607139921822195
81228 2 17760102717629359114
84936 182 18199752612172395881
84936 31 18270385196211716614
9981440 41 17977943810668962041

>  <PUBCHEM_SHAPE_MULTIPOLES>
408.69
6.65
4.49
1.39
8.32
0.29
0.42
1.08
-1.76
-8.04
-1.51
-0.19
-0.26
-0.37

>  <PUBCHEM_SHAPE_SELFOVERLAP>
877.329

>  <PUBCHEM_SHAPE_VOLUME>
225.4

>  <PUBCHEM_COORDINATE_TYPE>
2
5
10

>  <Energy>
16.1559

$$$$
