1732
 OpenBabel06182610193D

 16 16  0  0  0  0  0  0  0  0999 V2000
   -2.7841    0.9385    0.0001 Cl  0  0  0  0  0  0  0  0  0  0  0  0
    2.9503   -0.3085   -0.0001 O   0  0  0  0  0  0  0  0  0  0  0  0
   -0.6913   -0.8254    0.0007 C   0  0  0  0  0  0  0  0  0  0  0  0
    0.6854   -1.1032    0.0002 C   0  0  0  0  0  0  0  0  0  0  0  0
   -1.1093    0.5164    0.0002 C   0  0  0  0  0  0  0  0  0  0  0  0
    1.6094   -0.0619    0.0004 C   0  0  0  0  0  0  0  0  0  0  0  0
   -1.6709   -1.9650    0.0001 C   0  0  0  0  0  0  0  0  0  0  0  0
   -0.1713    1.5533    0.0001 C   0  0  0  0  0  0  0  0  0  0  0  0
    1.1918    1.2631    0.0002 C   0  0  0  0  0  0  0  0  0  0  0  0
    3.2643   -1.1913    0.0001 H   0  0  0  0  0  0  0  0  0  0  0  0
    1.0130   -2.0819   -0.0003 H   0  0  0  0  0  0  0  0  0  0  0  0
   -1.1384   -2.8931    0.0006 H   0  0  0  0  0  0  0  0  0  0  0  0
   -2.2853   -1.9068   -0.8740 H   0  0  0  0  0  0  0  0  0  0  0  0
   -2.2866   -1.9066    0.8733 H   0  0  0  0  0  0  0  0  0  0  0  0
   -0.4890    2.5352    0.0000 H   0  0  0  0  0  0  0  0  0  0  0  0
    1.8858    2.0268    0.0000 H   0  0  0  0  0  0  0  0  0  0  0  0
  1  5  1  0  0  0  0
  2  6  1  0  0  0  0
  2 10  1  0  0  0  0
  3  4  1  0  0  0  0
  3  5  2  0  0  0  0
  3  7  1  0  0  0  0
  4  6  2  0  0  0  0
  4 11  1  0  0  0  0
  5  8  1  0  0  0  0
  6  9  1  0  0  0  0
  7 12  1  0  0  0  0
  7 13  1  0  0  0  0
  7 14  1  0  0  0  0
  8  9  2  0  0  0  0
  8 15  1  0  0  0  0
  9 16  1  0  0  0  0
M  END
>  <PUBCHEM_COMPOUND_CID>
1732

>  <PUBCHEM_CONFORMER_RMSD>
0.4

>  <PUBCHEM_CONFORMER_DIVERSEORDER>
1

>  <PUBCHEM_MMFF94_PARTIAL_CHARGES>
13
1 -0.18
10 0.15
14 0.15
15 0.15
16 0.45
2 -0.53
3 -0.14
4 -0.15
5 0.18
6 0.08
7 0.14
8 -0.15
9 -0.15

>  <PUBCHEM_EFFECTIVE_ROTOR_COUNT>
0

>  <PUBCHEM_PHARMACOPHORE_FEATURES>
2
1 2 donor
6 3 4 5 6 8 9 rings

>  <PUBCHEM_HEAVY_ATOM_COUNT>
9

>  <PUBCHEM_ATOM_DEF_STEREO_COUNT>
0

>  <PUBCHEM_ATOM_UDEF_STEREO_COUNT>
0

>  <PUBCHEM_BOND_DEF_STEREO_COUNT>
0

>  <PUBCHEM_BOND_UDEF_STEREO_COUNT>
0

>  <PUBCHEM_ISOTOPIC_ATOM_COUNT>
0

>  <PUBCHEM_COMPONENT_COUNT>
1

>  <PUBCHEM_CACTVS_TAUTO_COUNT>
6

>  <PUBCHEM_CONFORMER_ID>
000006C400000001

>  <PUBCHEM_MMFF94_ENERGY>
20.241

>  <PUBCHEM_FEATURE_SELFOVERLAP>
10.148

>  <PUBCHEM_SHAPE_FINGERPRINT>
15310529 11 16660642899737674396
16945 1 18410573946517993892
18185500 45 18408319995020586962
193761 8 18122343746549767973
21040471 1 18410856516795767557
23235685 24 18340482257816856933
23402655 69 17978773637939392701
23552423 10 18116151249933265070
2748010 2 18267584787219098668
29004967 10 18188218589078161329
5084963 1 18128542750088853091

>  <PUBCHEM_SHAPE_MULTIPOLES>
181.22
3.28
1.85
0.61
0.24
0.33
0
-0.15
0
-0.69
0
-0.04
-0.01
0

>  <PUBCHEM_SHAPE_SELFOVERLAP>
367.277

>  <PUBCHEM_SHAPE_VOLUME>
107.4

>  <PUBCHEM_COORDINATE_TYPE>
2
5
10

>  <Energy>
7.53619

$$$$
