5578
 OpenBabel07292612043D

 39 40  0  0  0  0  0  0  0  0999 V2000
   -2.7399    2.5071    0.5805 O   0  0  0  0  0  0  0  0  0  0  0  0
   -2.7224   -2.1557   -0.7135 O   0  0  0  0  0  0  0  0  0  0  0  0
   -4.0200    0.4125   -0.6666 O   0  0  0  0  0  0  0  0  0  0  0  0
    3.8168   -0.9133   -0.7420 N   0  0  0  0  0  0  0  0  0  0  0  0
    3.8299    1.3765   -0.1352 N   0  0  0  0  0  0  0  0  0  0  0  0
    2.2623   -2.4172    0.1035 N   0  0  0  0  0  0  0  0  0  0  0  0
    5.3672    0.5638   -1.6351 N   0  0  0  0  0  0  0  0  0  0  0  0
    1.0691   -0.3130    1.7927 C   0  0  0  0  0  0  0  0  0  0  0  0
   -0.2787   -0.1444    1.1343 C   0  0  0  0  0  0  0  0  0  0  0  0
    2.2269   -0.1169    0.8608 C   0  0  0  0  0  0  0  0  0  0  0  0
   -0.9194   -1.2296    0.5178 C   0  0  0  0  0  0  0  0  0  0  0  0
   -0.8986    1.1111    1.1162 C   0  0  0  0  0  0  0  0  0  0  0  0
   -2.1384    1.2761    0.4943 C   0  0  0  0  0  0  0  0  0  0  0  0
   -2.1722   -1.0667   -0.0850 C   0  0  0  0  0  0  0  0  0  0  0  0
   -2.7819    0.1921   -0.1184 C   0  0  0  0  0  0  0  0  0  0  0  0
    2.7889   -1.1249    0.0918 C   0  0  0  0  0  0  0  0  0  0  0  0
    2.7968    1.1271    0.6842 C   0  0  0  0  0  0  0  0  0  0  0  0
    4.3021    0.3294   -0.8200 C   0  0  0  0  0  0  0  0  0  0  0  0
   -2.4104    3.3174   -0.5488 C   0  0  0  0  0  0  0  0  0  0  0  0
   -3.5792   -2.8766    0.1695 C   0  0  0  0  0  0  0  0  0  0  0  0
   -4.0719    0.0665   -2.0487 C   0  0  0  0  0  0  0  0  0  0  0  0
    2.6734   -3.1212   -0.4484 H   0  0  0  0  0  0  0  0  0  0  0  0
    1.4798   -2.6248    0.6636 H   0  0  0  0  0  0  0  0  0  0  0  0
    5.7548   -0.1717   -2.1624 H   0  0  0  0  0  0  0  0  0  0  0  0
    5.7497    1.4688   -1.6972 H   0  0  0  0  0  0  0  0  0  0  0  0
    1.1255   -1.3020    2.1971 H   0  0  0  0  0  0  0  0  0  0  0  0
    1.1444    0.4428    2.5463 H   0  0  0  0  0  0  0  0  0  0  0  0
   -0.4634   -2.1553    0.5085 H   0  0  0  0  0  0  0  0  0  0  0  0
   -0.4373    1.9182    1.5644 H   0  0  0  0  0  0  0  0  0  0  0  0
    2.4028    1.9180    1.2175 H   0  0  0  0  0  0  0  0  0  0  0  0
   -2.8908    4.2691   -0.4572 H   0  0  0  0  0  0  0  0  0  0  0  0
   -2.7434    2.8345   -1.4436 H   0  0  0  0  0  0  0  0  0  0  0  0
   -1.3502    3.4556   -0.5914 H   0  0  0  0  0  0  0  0  0  0  0  0
   -3.9940   -3.7185   -0.3443 H   0  0  0  0  0  0  0  0  0  0  0  0
   -4.3697   -2.2363    0.5012 H   0  0  0  0  0  0  0  0  0  0  0  0
   -3.0169   -3.2159    1.0142 H   0  0  0  0  0  0  0  0  0  0  0  0
   -5.0545    0.2562   -2.4272 H   0  0  0  0  0  0  0  0  0  0  0  0
   -3.8388   -0.9713   -2.1655 H   0  0  0  0  0  0  0  0  0  0  0  0
   -3.3612    0.6549   -2.5905 H   0  0  0  0  0  0  0  0  0  0  0  0
  1 13  1  0  0  0  0
  1 19  1  0  0  0  0
  2 14  1  0  0  0  0
  2 20  1  0  0  0  0
  3 15  1  0  0  0  0
  3 21  1  0  0  0  0
  4 16  2  0  0  0  0
  4 18  1  0  0  0  0
  5 17  1  0  0  0  0
  5 18  2  0  0  0  0
  6 16  1  0  0  0  0
  6 22  1  0  0  0  0
  6 23  1  0  0  0  0
  7 18  1  0  0  0  0
  7 24  1  0  0  0  0
  7 25  1  0  0  0  0
  8  9  1  0  0  0  0
  8 10  1  0  0  0  0
  8 26  1  0  0  0  0
  8 27  1  0  0  0  0
  9 11  2  0  0  0  0
  9 12  1  0  0  0  0
 10 16  1  0  0  0  0
 10 17  2  0  0  0  0
 11 14  1  0  0  0  0
 11 28  1  0  0  0  0
 12 13  2  0  0  0  0
 12 29  1  0  0  0  0
 13 15  1  0  0  0  0
 14 15  2  0  0  0  0
 17 30  1  0  0  0  0
 19 31  1  0  0  0  0
 19 32  1  0  0  0  0
 19 33  1  0  0  0  0
 20 34  1  0  0  0  0
 20 35  1  0  0  0  0
 20 36  1  0  0  0  0
 21 37  1  0  0  0  0
 21 38  1  0  0  0  0
 21 39  1  0  0  0  0
M  END
>  <PUBCHEM_COMPOUND_CID>
5578

>  <PUBCHEM_CONFORMER_RMSD>
0.8

>  <PUBCHEM_CONFORMER_DIVERSEORDER>
1
11
13
16
12
14
15
3
9
8
2
4
10
6
7
5

>  <PUBCHEM_MMFF94_PARTIAL_CHARGES>
28
1 -0.36
10 -0.14
11 -0.15
12 -0.15
13 0.08
14 0.08
15 0.08
16 0.41
17 0.16
18 0.72
19 0.28
2 -0.36
20 0.28
21 0.28
24 0.15
25 0.15
26 0.15
27 0.4
28 0.4
3 -0.36
38 0.4
39 0.4
4 -0.62
5 -0.62
6 -0.9
7 -0.9
8 0.29
9 -0.14

>  <PUBCHEM_EFFECTIVE_ROTOR_COUNT>
5

>  <PUBCHEM_PHARMACOPHORE_FEATURES>
8
1 1 acceptor
1 2 acceptor
1 3 acceptor
1 6 donor
1 7 donor
4 4 5 7 18 cation
6 4 5 10 16 17 18 rings
6 9 11 12 13 14 15 rings

>  <PUBCHEM_HEAVY_ATOM_COUNT>
21

>  <PUBCHEM_ATOM_DEF_STEREO_COUNT>
0

>  <PUBCHEM_ATOM_UDEF_STEREO_COUNT>
0

>  <PUBCHEM_BOND_DEF_STEREO_COUNT>
0

>  <PUBCHEM_BOND_UDEF_STEREO_COUNT>
0

>  <PUBCHEM_ISOTOPIC_ATOM_COUNT>
0

>  <PUBCHEM_COMPONENT_COUNT>
1

>  <PUBCHEM_CACTVS_TAUTO_COUNT>
9

>  <PUBCHEM_CONFORMER_ID>
000015CA00000001

>  <PUBCHEM_MMFF94_ENERGY>
100.2487

>  <PUBCHEM_FEATURE_SELFOVERLAP>
40.604

>  <PUBCHEM_SHAPE_FINGERPRINT>
10498660 4 18335132128709425332
10756046 5 18269557143834138514
12173636 292 18337946805752140815
12363563 72 15769769118275874712
12670546 177 18272375273867068732
12707595 3 16200424754637931688
12714826 92 17917993897095026643
14420673 8 8862129150172212888
14790565 3 18268430132127515057
16752209 62 18059844031104010763
16945 1 18267282310490452027
17134986 127 17831573180916146145
20361792 2 14836403623131485424
20645477 70 16486961917184668728
20693207 138 17632282484813035657
20739085 24 15538132478607414425
20871999 31 18343304759984063240
21713013 43 17988933292307883436
22182313 1 17980736540824102145
22393880 68 18342748390753904862
22907989 373 18342175566190823565
23402655 69 18335708213226816624
23557571 272 18335988678485507071
23559900 14 18271515481596764432
2748010 2 17908391974277633529
2838139 119 17023757848305200332
2871803 45 18272368736763573594
3082319 5 18412546496496109722
4028521 119 18113896052621347589
474 4 17458354052193475532
6049 1 17846210102779298960
633830 44 17679028097034668649
7615 1 17896020097157909720
9709674 26 18201719505288172814

>  <PUBCHEM_SHAPE_MULTIPOLES>
394.64
9.13
2.82
1.41
6.51
0.5
-0.28
0.25
-5.11
-3.04
-0.09
0.12
0.16
-0.21

>  <PUBCHEM_SHAPE_SELFOVERLAP>
838.047

>  <PUBCHEM_SHAPE_VOLUME>
219.9

>  <PUBCHEM_COORDINATE_TYPE>
2
5
10

>  <Energy>
-72.3981

$$$$
