


 32 35  0  0  0  0  0  0  0  0999 V2000
  -23.5997    5.3504   18.0455 N   0  0  0  0  0  0  0  0  0  0  0  0
  -20.1006    5.2826   18.7377 C   0  0  0  0  0  0  0  0  0  0  0  0
  -19.7374    7.5126   18.1422 C   0  0  0  0  0  0  0  0  0  0  0  0
  -21.8317    6.7112   17.9763 C   0  0  0  0  0  0  0  0  0  0  0  0
  -21.4546    5.4538   18.4305 C   0  0  0  0  0  0  0  0  0  0  0  0
  -23.1713    6.6151   17.7342 N   0  0  0  0  0  0  0  0  0  0  0  0
  -22.5723    4.6487   18.4545 N   0  0  0  0  0  0  0  0  0  0  0  0
  -19.2516    6.3276   18.5933 N   0  0  0  0  0  0  0  0  0  0  0  0
  -21.0207    7.7685   17.8175 N   0  0  0  0  0  0  0  0  0  0  0  0
  -18.8565    8.5237   18.0069 N   0  0  0  0  0  0  0  0  0  0  0  0
  -24.0074    4.9128   17.2192 H   0  0  0  0  0  0  0  0  0  0  0  0
  -22.4337    3.8493   17.8362 H   0  0  0  0  0  0  0  0  0  0  0  0
  -18.8360    6.5037   19.5080 H   0  0  0  0  0  0  0  0  0  0  0  0
  -21.3589    8.5272   18.4095 H   0  0  0  0  0  0  0  0  0  0  0  0
  -17.9105    8.1726   18.1558 H   0  0  0  0  0  0  0  0  0  0  0  0
  -19.0624    9.2484   18.6946 H   0  0  0  0  0  0  0  0  0  0  0  0
  -19.5655    4.0258   19.2208 C   0  0  0  0  0  0  0  0  0  0  0  0
  -19.1338    1.9579   19.9316 C   0  0  0  0  0  0  0  0  0  0  0  0
  -20.1582    2.8442   19.5052 C   0  0  0  0  0  0  0  0  0  0  0  0
  -17.9579    2.6771   19.8637 C   0  0  0  0  0  0  0  0  0  0  0  0
  -18.2055    3.9467   19.4239 O   0  0  0  0  0  0  0  0  0  0  0  0
  -24.1249    7.6161   17.2777 C   0  0  0  0  0  0  0  0  0  0  0  0
  -24.0540    8.7386   11.7010 N   0  0  0  0  0  0  0  0  0  0  0  0
  -24.0894    7.9049   15.7989 C   0  0  0  0  0  0  0  0  0  0  0  0
  -25.0628    7.3930   14.9582 C   0  0  0  0  0  0  0  0  0  0  0  0
  -25.0431    7.6685   13.6041 C   0  0  0  0  0  0  0  0  0  0  0  0
  -24.0514    8.4750   13.0654 C   0  0  0  0  0  0  0  0  0  0  0  0
  -21.9590    9.8976   13.3660 C   0  0  0  0  0  0  0  0  0  0  0  0
  -23.0521    9.0203   13.9080 C   0  0  0  0  0  0  0  0  0  0  0  0
  -23.1043    8.7209   15.2655 C   0  0  0  0  0  0  0  0  0  0  0  0
  -24.8437    8.2631   11.2643 H   0  0  0  0  0  0  0  0  0  0  0  0
  -23.1840    8.4022   11.2881 H   0  0  0  0  0  0  0  0  0  0  0  0
 25 24  1  0
 26 25  1  0
 27 26  1  0
 27 23  1  0
 22 24  1  0
 17  2  1  0
 19 18  1  0
 19 17  1  0
 20 18  1  0
 29 28  1  0
 29 27  1  0
 30 29  1  0
 30 24  1  0
  5  4  1  0
  5  2  1  0
  6 22  1  0
  6  1  1  0
  6  4  1  0
  7  1  1  0
  7  5  1  0
  8  3  1  0
  8  2  1  0
  9  4  1  0
  9  3  1  0
 10  3  1  0
 21 20  1  0
 21 17  1  0
 23 31  1  0
 23 32  1  0
  1 11  1  0
  7 12  1  0
  8 13  1  0
  9 14  1  0
 10 15  1  0
 10 16  1  0
M  END
> <minimizedAffinity>
-9.62687

> <CNNscore>
0.8238639832

> <CNNaffinity>
6.7597298622

> <CNN_VS>
5.5690979958

> <CNNaffinity_variance>
0.0875134692

$$$$



 32 35  0  0  0  0  0  0  0  0999 V2000
  -18.8417    8.0382   18.1092 N   0  0  0  0  0  0  0  0  0  0  0  0
  -20.5878    4.9834   18.6984 C   0  0  0  0  0  0  0  0  0  0  0  0
  -22.6579    5.7970   17.9827 C   0  0  0  0  0  0  0  0  0  0  0  0
  -20.9028    7.2014   17.9246 C   0  0  0  0  0  0  0  0  0  0  0  0
  -20.0333    6.2366   18.4171 C   0  0  0  0  0  0  0  0  0  0  0  0
  -20.1358    8.3167   17.7516 N   0  0  0  0  0  0  0  0  0  0  0  0
  -18.7779    6.7953   18.5172 N   0  0  0  0  0  0  0  0  0  0  0  0
  -21.9063    4.7763   18.4694 N   0  0  0  0  0  0  0  0  0  0  0  0
  -22.2133    7.0352   17.6879 N   0  0  0  0  0  0  0  0  0  0  0  0
  -23.9666    5.5492   17.7762 N   0  0  0  0  0  0  0  0  0  0  0  0
  -18.5517    8.6621   18.8622 H   0  0  0  0  0  0  0  0  0  0  0  0
  -18.4655    6.7675   19.4877 H   0  0  0  0  0  0  0  0  0  0  0  0
  -21.9767    4.0084   17.8018 H   0  0  0  0  0  0  0  0  0  0  0  0
  -22.3886    7.2147   16.6992 H   0  0  0  0  0  0  0  0  0  0  0  0
  -24.2029    4.6323   18.1554 H   0  0  0  0  0  0  0  0  0  0  0  0
  -24.1615    5.5636   16.7751 H   0  0  0  0  0  0  0  0  0  0  0  0
  -19.8005    3.8833   19.2172 C   0  0  0  0  0  0  0  0  0  0  0  0
  -18.9495    1.9841   20.0153 C   0  0  0  0  0  0  0  0  0  0  0  0
  -20.1436    2.6341   19.6049 C   0  0  0  0  0  0  0  0  0  0  0  0
  -17.9360    2.9028   19.8327 C   0  0  0  0  0  0  0  0  0  0  0  0
  -18.4415    4.0717   19.3381 O   0  0  0  0  0  0  0  0  0  0  0  0
  -20.4813    9.6317   17.2307 C   0  0  0  0  0  0  0  0  0  0  0  0
  -24.5848    9.7279   13.2916 N   0  0  0  0  0  0  0  0  0  0  0  0
  -21.5642    9.6394   16.1825 C   0  0  0  0  0  0  0  0  0  0  0  0
  -22.8874    9.8353   16.5389 C   0  0  0  0  0  0  0  0  0  0  0  0
  -23.8816    9.8591   15.5793 C   0  0  0  0  0  0  0  0  0  0  0  0
  -23.5674    9.6988   14.2378 C   0  0  0  0  0  0  0  0  0  0  0  0
  -21.8347    9.3305   12.4063 C   0  0  0  0  0  0  0  0  0  0  0  0
  -22.2190    9.5095   13.8480 C   0  0  0  0  0  0  0  0  0  0  0  0
  -21.2458    9.4910   14.8418 C   0  0  0  0  0  0  0  0  0  0  0  0
  -25.4798    9.8727   13.7590 H   0  0  0  0  0  0  0  0  0  0  0  0
  -24.6045    8.8422   12.7862 H   0  0  0  0  0  0  0  0  0  0  0  0
 25 24  1  0
 26 25  1  0
 27 26  1  0
 27 23  1  0
 22 24  1  0
 17  2  1  0
 19 18  1  0
 19 17  1  0
 20 18  1  0
 29 28  1  0
 29 27  1  0
 30 29  1  0
 30 24  1  0
  5  4  1  0
  5  2  1  0
  6 22  1  0
  6  1  1  0
  6  4  1  0
  7  1  1  0
  7  5  1  0
  8  3  1  0
  8  2  1  0
  9  4  1  0
  9  3  1  0
 10  3  1  0
 21 20  1  0
 21 17  1  0
 23 31  1  0
 23 32  1  0
  1 11  1  0
  7 12  1  0
  8 13  1  0
  9 14  1  0
 10 15  1  0
 10 16  1  0
M  END
> <minimizedAffinity>
-9.45728

> <CNNscore>
0.6883314848

> <CNNaffinity>
6.7129778862

> <CNN_VS>
4.6207542419

> <CNNaffinity_variance>
0.0907051936

$$$$



 32 35  0  0  0  0  0  0  0  0999 V2000
  -23.2628    5.8819   17.6524 N   0  0  0  0  0  0  0  0  0  0  0  0
  -19.8893    5.5914   18.7758 C   0  0  0  0  0  0  0  0  0  0  0  0
  -19.3542    7.8307   18.3778 C   0  0  0  0  0  0  0  0  0  0  0  0
  -21.4426    7.1506   17.8964 C   0  0  0  0  0  0  0  0  0  0  0  0
  -21.1832    5.8507   18.3116 C   0  0  0  0  0  0  0  0  0  0  0  0
  -22.7424    7.1388   17.4810 N   0  0  0  0  0  0  0  0  0  0  0  0
  -22.3289    5.1047   18.1414 N   0  0  0  0  0  0  0  0  0  0  0  0
  -18.9835    6.5975   18.8085 N   0  0  0  0  0  0  0  0  0  0  0  0
  -20.5720    8.1718   17.9108 N   0  0  0  0  0  0  0  0  0  0  0  0
  -18.4194    8.8008   18.4214 N   0  0  0  0  0  0  0  0  0  0  0  0
  -23.5789    5.5157   16.7543 H   0  0  0  0  0  0  0  0  0  0  0  0
  -22.1468    4.3372   17.4948 H   0  0  0  0  0  0  0  0  0  0  0  0
  -18.6826    6.6974   19.7780 H   0  0  0  0  0  0  0  0  0  0  0  0
  -20.9503    8.9107   18.5035 H   0  0  0  0  0  0  0  0  0  0  0  0
  -17.5171    8.3928   18.6656 H   0  0  0  0  0  0  0  0  0  0  0  0
  -18.6806    9.4933   19.1233 H   0  0  0  0  0  0  0  0  0  0  0  0
  -19.4771    4.2821   19.2397 C   0  0  0  0  0  0  0  0  0  0  0  0
  -19.2501    2.1873   19.9668 C   0  0  0  0  0  0  0  0  0  0  0  0
  -20.1876    3.1972   19.6227 C   0  0  0  0  0  0  0  0  0  0  0  0
  -18.0034    2.7387   19.7523 C   0  0  0  0  0  0  0  0  0  0  0  0
  -18.1258    4.0223   19.3007 O   0  0  0  0  0  0  0  0  0  0  0  0
  -23.5839    8.2133   16.9738 C   0  0  0  0  0  0  0  0  0  0  0  0
  -21.7468   10.5443   12.1202 N   0  0  0  0  0  0  0  0  0  0  0  0
  -23.1140    8.8390   15.6856 C   0  0  0  0  0  0  0  0  0  0  0  0
  -22.0518    9.7266   15.6806 C   0  0  0  0  0  0  0  0  0  0  0  0
  -21.6074   10.2903   14.4996 C   0  0  0  0  0  0  0  0  0  0  0  0
  -22.2126    9.9653   13.2945 C   0  0  0  0  0  0  0  0  0  0  0  0
  -23.9781    8.6710   11.9905 C   0  0  0  0  0  0  0  0  0  0  0  0
  -23.2931    9.0498   13.2733 C   0  0  0  0  0  0  0  0  0  0  0  0
  -23.7128    8.5030   14.4817 C   0  0  0  0  0  0  0  0  0  0  0  0
  -20.9708   11.1707   12.3346 H   0  0  0  0  0  0  0  0  0  0  0  0
  -22.4995   11.0736   11.6802 H   0  0  0  0  0  0  0  0  0  0  0  0
 25 24  1  0
 26 25  1  0
 27 26  1  0
 27 23  1  0
 22 24  1  0
 17  2  1  0
 19 18  1  0
 19 17  1  0
 20 18  1  0
 29 28  1  0
 29 27  1  0
 30 29  1  0
 30 24  1  0
  5  4  1  0
  5  2  1  0
  6 22  1  0
  6  1  1  0
  6  4  1  0
  7  1  1  0
  7  5  1  0
  8  3  1  0
  8  2  1  0
  9  4  1  0
  9  3  1  0
 10  3  1  0
 21 20  1  0
 21 17  1  0
 23 31  1  0
 23 32  1  0
  1 11  1  0
  7 12  1  0
  8 13  1  0
  9 14  1  0
 10 15  1  0
 10 16  1  0
M  END
> <minimizedAffinity>
-9.74271

> <CNNscore>
0.7772289515

> <CNNaffinity>
6.5719666481

> <CNN_VS>
5.1079225540

> <CNNaffinity_variance>
0.0593524165

$$$$



 32 35  0  0  0  0  0  0  0  0999 V2000
  -23.2029    5.9147   17.6782 N   0  0  0  0  0  0  0  0  0  0  0  0
  -19.8160    5.6169   18.7588 C   0  0  0  0  0  0  0  0  0  0  0  0
  -19.2812    7.8551   18.3542 C   0  0  0  0  0  0  0  0  0  0  0  0
  -21.3770    7.1795   17.8992 C   0  0  0  0  0  0  0  0  0  0  0  0
  -21.1152    5.8790   18.3110 C   0  0  0  0  0  0  0  0  0  0  0  0
  -22.6820    7.1705   17.5003 N   0  0  0  0  0  0  0  0  0  0  0  0
  -22.2646    5.1355   18.1553 N   0  0  0  0  0  0  0  0  0  0  0  0
  -18.9078    6.6211   18.7801 N   0  0  0  0  0  0  0  0  0  0  0  0
  -20.5042    8.1989   17.9026 N   0  0  0  0  0  0  0  0  0  0  0  0
  -18.3439    8.8233   18.3859 N   0  0  0  0  0  0  0  0  0  0  0  0
  -23.5311    5.5493   16.7842 H   0  0  0  0  0  0  0  0  0  0  0  0
  -22.0922    4.3677   17.5064 H   0  0  0  0  0  0  0  0  0  0  0  0
  -18.5944    6.7203   19.7457 H   0  0  0  0  0  0  0  0  0  0  0  0
  -20.8733    8.9386   18.5001 H   0  0  0  0  0  0  0  0  0  0  0  0
  -17.4394    8.4133   18.6187 H   0  0  0  0  0  0  0  0  0  0  0  0
  -18.5947    9.5163   19.0911 H   0  0  0  0  0  0  0  0  0  0  0  0
  -19.4008    4.3067   19.2174 C   0  0  0  0  0  0  0  0  0  0  0  0
  -19.1684    2.2061   19.9254 C   0  0  0  0  0  0  0  0  0  0  0  0
  -20.1083    3.2098   19.5704 C   0  0  0  0  0  0  0  0  0  0  0  0
  -17.9230    2.7733   19.7478 C   0  0  0  0  0  0  0  0  0  0  0  0
  -18.0486    4.0607   19.3082 O   0  0  0  0  0  0  0  0  0  0  0  0
  -23.5275    8.2469   17.0038 C   0  0  0  0  0  0  0  0  0  0  0  0
  -21.5568   11.0431   12.4582 N   0  0  0  0  0  0  0  0  0  0  0  0
  -22.9881    8.9811   15.8031 C   0  0  0  0  0  0  0  0  0  0  0  0
  -23.4522    8.6886   14.5322 C   0  0  0  0  0  0  0  0  0  0  0  0
  -22.9720    9.3705   13.4302 C   0  0  0  0  0  0  0  0  0  0  0  0
  -22.0230   10.3709   13.5815 C   0  0  0  0  0  0  0  0  0  0  0  0
  -20.5140   11.7717   15.0824 C   0  0  0  0  0  0  0  0  0  0  0  0
  -21.5425   10.6963   14.8735 C   0  0  0  0  0  0  0  0  0  0  0  0
  -22.0489    9.9883   15.9587 C   0  0  0  0  0  0  0  0  0  0  0  0
  -22.0151   10.6727   11.6257 H   0  0  0  0  0  0  0  0  0  0  0  0
  -20.5484   10.9122   12.3778 H   0  0  0  0  0  0  0  0  0  0  0  0
 25 24  1  0
 26 25  1  0
 27 26  1  0
 27 23  1  0
 22 24  1  0
 17  2  1  0
 19 18  1  0
 19 17  1  0
 20 18  1  0
 29 28  1  0
 29 27  1  0
 30 29  1  0
 30 24  1  0
  5  4  1  0
  5  2  1  0
  6 22  1  0
  6  1  1  0
  6  4  1  0
  7  1  1  0
  7  5  1  0
  8  3  1  0
  8  2  1  0
  9  4  1  0
  9  3  1  0
 10  3  1  0
 21 20  1  0
 21 17  1  0
 23 31  1  0
 23 32  1  0
  1 11  1  0
  7 12  1  0
  8 13  1  0
  9 14  1  0
 10 15  1  0
 10 16  1  0
M  END
> <minimizedAffinity>
-9.43502

> <CNNscore>
0.6691015959

> <CNNaffinity>
6.4676437378

> <CNN_VS>
4.3275108337

> <CNNaffinity_variance>
0.0660216734

$$$$



 32 35  0  0  0  0  0  0  0  0999 V2000
  -19.2765    8.8697   17.8306 N   0  0  0  0  0  0  0  0  0  0  0  0
  -21.5472    6.1321   18.1088 C   0  0  0  0  0  0  0  0  0  0  0  0
  -23.3572    7.2805   17.1790 C   0  0  0  0  0  0  0  0  0  0  0  0
  -21.4065    8.3814   17.3753 C   0  0  0  0  0  0  0  0  0  0  0  0
  -20.7693    7.2819   17.9362 C   0  0  0  0  0  0  0  0  0  0  0  0
  -20.4557    9.3593   17.3310 N   0  0  0  0  0  0  0  0  0  0  0  0
  -19.4626    7.6278   18.2028 N   0  0  0  0  0  0  0  0  0  0  0  0
  -22.8437    6.1450   17.7182 N   0  0  0  0  0  0  0  0  0  0  0  0
  -22.6877    8.4335   16.9793 N   0  0  0  0  0  0  0  0  0  0  0  0
  -24.6534    7.2513   16.8105 N   0  0  0  0  0  0  0  0  0  0  0  0
  -18.9849    9.4285   18.6325 H   0  0  0  0  0  0  0  0  0  0  0  0
  -19.2799    7.5373   19.2022 H   0  0  0  0  0  0  0  0  0  0  0  0
  -22.9537    5.4073   17.0224 H   0  0  0  0  0  0  0  0  0  0  0  0
  -22.7096    8.6518   15.9832 H   0  0  0  0  0  0  0  0  0  0  0  0
  -25.0779    6.3803   17.1291 H   0  0  0  0  0  0  0  0  0  0  0  0
  -24.7194    7.3100   15.7943 H   0  0  0  0  0  0  0  0  0  0  0  0
  -21.0155    4.9121   18.6816 C   0  0  0  0  0  0  0  0  0  0  0  0
  -19.8868    3.2777   19.6931 C   0  0  0  0  0  0  0  0  0  0  0  0
  -19.8761    4.6593   19.3646 C   0  0  0  0  0  0  0  0  0  0  0  0
  -21.0676    2.7763   19.1843 C   0  0  0  0  0  0  0  0  0  0  0  0
  -21.7741    3.7684   18.5652 O   0  0  0  0  0  0  0  0  0  0  0  0
  -20.5202   10.7195   16.8156 C   0  0  0  0  0  0  0  0  0  0  0  0
  -24.0933   11.5532   12.4679 N   0  0  0  0  0  0  0  0  0  0  0  0
  -21.4726   10.9225   15.6652 C   0  0  0  0  0  0  0  0  0  0  0  0
  -22.4914   11.8556   15.7512 C   0  0  0  0  0  0  0  0  0  0  0  0
  -23.3571   12.0563   14.6927 C   0  0  0  0  0  0  0  0  0  0  0  0
  -23.2111   11.3323   13.5186 C   0  0  0  0  0  0  0  0  0  0  0  0
  -21.9749    9.5743   12.1498 C   0  0  0  0  0  0  0  0  0  0  0  0
  -22.1682   10.3810   13.4028 C   0  0  0  0  0  0  0  0  0  0  0  0
  -21.3168   10.2063   14.4890 C   0  0  0  0  0  0  0  0  0  0  0  0
  -24.7694   12.2682   12.7362 H   0  0  0  0  0  0  0  0  0  0  0  0
  -24.5842   10.6865   12.2482 H   0  0  0  0  0  0  0  0  0  0  0  0
 25 24  1  0
 26 25  1  0
 27 26  1  0
 27 23  1  0
 22 24  1  0
 17  2  1  0
 19 18  1  0
 19 17  1  0
 20 18  1  0
 29 28  1  0
 29 27  1  0
 30 29  1  0
 30 24  1  0
  5  4  1  0
  5  2  1  0
  6 22  1  0
  6  1  1  0
  6  4  1  0
  7  1  1  0
  7  5  1  0
  8  3  1  0
  8  2  1  0
  9  4  1  0
  9  3  1  0
 10  3  1  0
 21 20  1  0
 21 17  1  0
 23 31  1  0
 23 32  1  0
  1 11  1  0
  7 12  1  0
  8 13  1  0
  9 14  1  0
 10 15  1  0
 10 16  1  0
M  END
> <minimizedAffinity>
-8.49296

> <CNNscore>
0.4389948845

> <CNNaffinity>
6.3555831909

> <CNN_VS>
2.7900686264

> <CNNaffinity_variance>
0.0889203474

$$$$



 32 35  0  0  0  0  0  0  0  0999 V2000
  -21.4789    8.0507   17.7373 N   0  0  0  0  0  0  0  0  0  0  0  0
  -22.0800    4.5751   18.2729 C   0  0  0  0  0  0  0  0  0  0  0  0
  -24.2393    4.6076   17.3810 C   0  0  0  0  0  0  0  0  0  0  0  0
  -23.0919    6.5409   17.4190 C   0  0  0  0  0  0  0  0  0  0  0  0
  -21.9811    5.9439   18.0014 C   0  0  0  0  0  0  0  0  0  0  0  0
  -22.7550    7.8555   17.2753 N   0  0  0  0  0  0  0  0  0  0  0  0
  -21.0150    6.9094   18.1817 N   0  0  0  0  0  0  0  0  0  0  0  0
  -23.2184    3.9166   17.9501 N   0  0  0  0  0  0  0  0  0  0  0  0
  -24.2366    5.9235   17.0880 N   0  0  0  0  0  0  0  0  0  0  0  0
  -25.3561    3.9144   17.0824 N   0  0  0  0  0  0  0  0  0  0  0  0
  -21.4884    8.7353   18.4934 H   0  0  0  0  0  0  0  0  0  0  0  0
  -20.7918    6.9917   19.1735 H   0  0  0  0  0  0  0  0  0  0  0  0
  -22.9603    3.1746   17.2996 H   0  0  0  0  0  0  0  0  0  0  0  0
  -24.3838    6.0317   16.0845 H   0  0  0  0  0  0  0  0  0  0  0  0
  -25.2844    2.9723   17.4667 H   0  0  0  0  0  0  0  0  0  0  0  0
  -25.4625    3.8611   16.0694 H   0  0  0  0  0  0  0  0  0  0  0  0
  -21.0004    3.8224   18.8788 C   0  0  0  0  0  0  0  0  0  0  0  0
  -19.5972    2.3408   19.7755 C   0  0  0  0  0  0  0  0  0  0  0  0
  -20.8994    2.5229   19.2388 C   0  0  0  0  0  0  0  0  0  0  0  0
  -18.9772    3.5708   19.6914 C   0  0  0  0  0  0  0  0  0  0  0  0
  -19.8236    4.4896   19.1381 O   0  0  0  0  0  0  0  0  0  0  0  0
  -23.4980    8.9651   16.6951 C   0  0  0  0  0  0  0  0  0  0  0  0
  -24.2745    8.7432   11.0637 N   0  0  0  0  0  0  0  0  0  0  0  0
  -23.6888    8.8948   15.2017 C   0  0  0  0  0  0  0  0  0  0  0  0
  -24.8569    8.3815   14.6648 C   0  0  0  0  0  0  0  0  0  0  0  0
  -25.0427    8.3300   13.2963 C   0  0  0  0  0  0  0  0  0  0  0  0
  -24.0636    8.8046   12.4359 C   0  0  0  0  0  0  0  0  0  0  0  0
  -21.7785    9.8698   12.0667 C   0  0  0  0  0  0  0  0  0  0  0  0
  -22.8654    9.3459   12.9625 C   0  0  0  0  0  0  0  0  0  0  0  0
  -22.7140    9.3809   14.3449 C   0  0  0  0  0  0  0  0  0  0  0  0
  -25.1864    8.3256   10.8782 H   0  0  0  0  0  0  0  0  0  0  0  0
  -23.5459    8.1740   10.6329 H   0  0  0  0  0  0  0  0  0  0  0  0
 25 24  1  0
 26 25  1  0
 27 26  1  0
 27 23  1  0
 22 24  1  0
 17  2  1  0
 19 18  1  0
 19 17  1  0
 20 18  1  0
 29 28  1  0
 29 27  1  0
 30 29  1  0
 30 24  1  0
  5  4  1  0
  5  2  1  0
  6 22  1  0
  6  1  1  0
  6  4  1  0
  7  1  1  0
  7  5  1  0
  8  3  1  0
  8  2  1  0
  9  4  1  0
  9  3  1  0
 10  3  1  0
 21 20  1  0
 21 17  1  0
 23 31  1  0
 23 32  1  0
  1 11  1  0
  7 12  1  0
  8 13  1  0
  9 14  1  0
 10 15  1  0
 10 16  1  0
M  END
> <minimizedAffinity>
-8.19955

> <CNNscore>
0.3875386417

> <CNNaffinity>
6.2232079506

> <CNN_VS>
2.4117336273

> <CNNaffinity_variance>
0.0698880255

$$$$



 32 35  0  0  0  0  0  0  0  0999 V2000
  -23.8663    6.5935   16.7424 N   0  0  0  0  0  0  0  0  0  0  0  0
  -21.7829    9.4048   16.0470 C   0  0  0  0  0  0  0  0  0  0  0  0
  -20.1734    8.8604   17.6509 C   0  0  0  0  0  0  0  0  0  0  0  0
  -21.9459    7.4933   17.4387 C   0  0  0  0  0  0  0  0  0  0  0  0
  -22.4972    8.2617   16.4213 C   0  0  0  0  0  0  0  0  0  0  0  0
  -22.8250    6.4664   17.6252 N   0  0  0  0  0  0  0  0  0  0  0  0
  -23.6783    7.6732   16.0253 N   0  0  0  0  0  0  0  0  0  0  0  0
  -20.6145    9.6890   16.6697 N   0  0  0  0  0  0  0  0  0  0  0  0
  -20.7944    7.7436   18.0807 N   0  0  0  0  0  0  0  0  0  0  0  0
  -19.0097    9.1847   18.2486 N   0  0  0  0  0  0  0  0  0  0  0  0
  -24.7443    6.6709   17.2558 H   0  0  0  0  0  0  0  0  0  0  0  0
  -24.4517    8.3220   16.1712 H   0  0  0  0  0  0  0  0  0  0  0  0
  -19.8910    9.7132   15.9512 H   0  0  0  0  0  0  0  0  0  0  0  0
  -20.1675    6.9511   17.9412 H   0  0  0  0  0  0  0  0  0  0  0  0
  -18.7097   10.1065   17.9312 H   0  0  0  0  0  0  0  0  0  0  0  0
  -18.2992    8.4939   18.0069 H   0  0  0  0  0  0  0  0  0  0  0  0
  -22.2384   10.2991   15.0019 C   0  0  0  0  0  0  0  0  0  0  0  0
  -22.7794   11.3918   13.1360 C   0  0  0  0  0  0  0  0  0  0  0  0
  -22.1324   10.2390   13.6552 C   0  0  0  0  0  0  0  0  0  0  0  0
  -23.2562   12.0840   14.2305 C   0  0  0  0  0  0  0  0  0  0  0  0
  -22.9369   11.4234   15.3830 O   0  0  0  0  0  0  0  0  0  0  0  0
  -22.7706    5.3261   18.5290 C   0  0  0  0  0  0  0  0  0  0  0  0
  -17.5389    3.4012   19.6646 N   0  0  0  0  0  0  0  0  0  0  0  0
  -21.3863    4.8036   18.8158 C   0  0  0  0  0  0  0  0  0  0  0  0
  -20.2840    5.6337   18.7061 C   0  0  0  0  0  0  0  0  0  0  0  0
  -19.0145    5.1631   18.9836 C   0  0  0  0  0  0  0  0  0  0  0  0
  -18.8250    3.8504   19.3899 C   0  0  0  0  0  0  0  0  0  0  0  0
  -19.7789    1.5568   19.9573 C   0  0  0  0  0  0  0  0  0  0  0  0
  -19.9392    2.9860   19.5215 C   0  0  0  0  0  0  0  0  0  0  0  0
  -21.2014    3.4950   19.2332 C   0  0  0  0  0  0  0  0  0  0  0  0
  -16.8743    4.1602   19.5143 H   0  0  0  0  0  0  0  0  0  0  0  0
  -17.3114    2.6226   19.0461 H   0  0  0  0  0  0  0  0  0  0  0  0
 25 24  1  0
 26 25  1  0
 27 26  1  0
 27 23  1  0
 22 24  1  0
 17  2  1  0
 19 18  1  0
 19 17  1  0
 20 18  1  0
 29 28  1  0
 29 27  1  0
 30 29  1  0
 30 24  1  0
  5  4  1  0
  5  2  1  0
  6 22  1  0
  6  1  1  0
  6  4  1  0
  7  1  1  0
  7  5  1  0
  8  3  1  0
  8  2  1  0
  9  4  1  0
  9  3  1  0
 10  3  1  0
 21 20  1  0
 21 17  1  0
 23 31  1  0
 23 32  1  0
  1 11  1  0
  7 12  1  0
  8 13  1  0
  9 14  1  0
 10 15  1  0
 10 16  1  0
M  END
> <minimizedAffinity>
-7.79888

> <CNNscore>
0.4767452180

> <CNNaffinity>
6.2010250092

> <CNN_VS>
2.9563090801

> <CNNaffinity_variance>
0.0347833708

$$$$



 32 35  0  0  0  0  0  0  0  0999 V2000
  -24.8966    7.7224   15.5382 N   0  0  0  0  0  0  0  0  0  0  0  0
  -22.9630   10.7113   15.3022 C   0  0  0  0  0  0  0  0  0  0  0  0
  -21.4873   10.1287   17.0175 C   0  0  0  0  0  0  0  0  0  0  0  0
  -23.1259    8.6764   16.5063 C   0  0  0  0  0  0  0  0  0  0  0  0
  -23.6266    9.4962   15.5030 C   0  0  0  0  0  0  0  0  0  0  0  0
  -23.9426    7.5831   16.5131 N   0  0  0  0  0  0  0  0  0  0  0  0
  -24.7162    8.8717   14.9366 N   0  0  0  0  0  0  0  0  0  0  0  0
  -21.8866   11.0121   16.0668 N   0  0  0  0  0  0  0  0  0  0  0  0
  -22.0657    8.9407   17.2854 N   0  0  0  0  0  0  0  0  0  0  0  0
  -20.4159   10.4714   17.7602 N   0  0  0  0  0  0  0  0  0  0  0  0
  -25.8249    7.6977   15.9601 H   0  0  0  0  0  0  0  0  0  0  0  0
  -25.5453    9.4545   15.0526 H   0  0  0  0  0  0  0  0  0  0  0  0
  -21.0983   11.1465   15.4337 H   0  0  0  0  0  0  0  0  0  0  0  0
  -21.3723    8.2053   17.1483 H   0  0  0  0  0  0  0  0  0  0  0  0
  -20.1531   11.4350   17.5535 H   0  0  0  0  0  0  0  0  0  0  0  0
  -19.6367    9.8515   17.5390 H   0  0  0  0  0  0  0  0  0  0  0  0
  -23.3749   11.6648   14.2921 C   0  0  0  0  0  0  0  0  0  0  0  0
  -24.0213   12.8015   12.4870 C   0  0  0  0  0  0  0  0  0  0  0  0
  -23.6567   11.5195   12.9776 C   0  0  0  0  0  0  0  0  0  0  0  0
  -23.9451   13.6565   13.5675 C   0  0  0  0  0  0  0  0  0  0  0  0
  -23.5550   12.9729   14.6843 O   0  0  0  0  0  0  0  0  0  0  0  0
  -23.8967    6.3722   17.3203 C   0  0  0  0  0  0  0  0  0  0  0  0
  -18.7337    4.9822   19.2638 N   0  0  0  0  0  0  0  0  0  0  0  0
  -22.5277    5.9904   17.8222 C   0  0  0  0  0  0  0  0  0  0  0  0
  -21.4853    6.9004   17.7849 C   0  0  0  0  0  0  0  0  0  0  0  0
  -20.2326    6.5598   18.2588 C   0  0  0  0  0  0  0  0  0  0  0  0
  -20.0017    5.3004   18.7925 C   0  0  0  0  0  0  0  0  0  0  0  0
  -20.8495    2.9813   19.4213 C   0  0  0  0  0  0  0  0  0  0  0  0
  -21.0562    4.3568   18.8526 C   0  0  0  0  0  0  0  0  0  0  0  0
  -22.3032    4.7355   18.3659 C   0  0  0  0  0  0  0  0  0  0  0  0
  -18.1133    5.7819   19.1369 H   0  0  0  0  0  0  0  0  0  0  0  0
  -18.3689    4.1832   18.7453 H   0  0  0  0  0  0  0  0  0  0  0  0
 25 24  1  0
 26 25  1  0
 27 26  1  0
 27 23  1  0
 22 24  1  0
 17  2  1  0
 19 18  1  0
 19 17  1  0
 20 18  1  0
 29 28  1  0
 29 27  1  0
 30 29  1  0
 30 24  1  0
  5  4  1  0
  5  2  1  0
  6 22  1  0
  6  1  1  0
  6  4  1  0
  7  1  1  0
  7  5  1  0
  8  3  1  0
  8  2  1  0
  9  4  1  0
  9  3  1  0
 10  3  1  0
 21 20  1  0
 21 17  1  0
 23 31  1  0
 23 32  1  0
  1 11  1  0
  7 12  1  0
  8 13  1  0
  9 14  1  0
 10 15  1  0
 10 16  1  0
M  END
> <minimizedAffinity>
-8.88404

> <CNNscore>
0.2873753607

> <CNNaffinity>
5.9741616249

> <CNN_VS>
1.7168267965

> <CNNaffinity_variance>
0.1456516236

$$$$
